# generated using pymatgen
data_Zr10Ta17C5N22
_symmetry_space_group_name_H-M   'P 1'
_cell_length_a   11.49615489
_cell_length_b   11.56458588
_cell_length_c   11.55774745
_cell_angle_alpha   89.70536739
_cell_angle_beta   89.81709853
_cell_angle_gamma   90.57214104
_symmetry_Int_Tables_number   1
_chemical_formula_structural   Zr10Ta17C5N22
_chemical_formula_sum   'Zr10 Ta17 C5 N22'
_cell_volume   1536.47752523
_cell_formula_units_Z   1
loop_
 _symmetry_equiv_pos_site_id
 _symmetry_equiv_pos_as_xyz
  1  'x, y, z'
loop_
 _atom_site_type_symbol
 _atom_site_label
 _atom_site_symmetry_multiplicity
 _atom_site_fract_x
 _atom_site_fract_y
 _atom_site_fract_z
 _atom_site_occupancy
  Ta  Ta0  1  -0.05501013  0.08751505  -0.13980103  1
  N  N1  1  0.16421981  0.20742900  0.30124491  1
  Zr  Zr2  1  0.01758352  -0.02912718  0.37429863  1
  C  C3  1  0.24496652  0.19627967  0.56895719  1
  Zr  Zr4  1  0.12271062  0.05286232  0.61978687  1
  N  N5  1  0.07724972  0.13068784  0.77595977  1
  Ta  Ta6  1  -0.06344527  0.33834362  -0.05768893  1
  N  N7  1  0.06384840  0.58156749  0.25301347  1
  Ta  Ta8  1  0.10443648  0.26732867  0.45224749  1
  N  N9  1  0.22336895  0.42651542  0.43880257  1
  Zr  Zr10  1  -0.00383778  0.28843331  0.69529232  1
  N  N11  1  0.06425022  0.35318758  0.84845630  1
  Ta  Ta12  1  -0.02768922  0.48987031  0.16971367  1
  N  N13  1  0.02254174  0.86155302  0.24813417  1
  Zr  Zr14  1  -0.05204202  0.71525890  0.30553040  1
  N  N15  1  0.18610918  0.98008652  0.44454669  1
  Ta  Ta16  1  -0.17272961  0.69720569  0.56271300  1
  N  N17  1  0.35950766  0.88406799  0.83226197  1
  Zr  Zr18  1  0.34732434  -0.01415037  0.00003287  1
  N  N19  1  0.35239534  0.13117369  0.09059878  1
  Ta  Ta20  1  0.28864141  0.11083713  0.41239482  1
  N  N21  1  0.42632111  0.25330978  0.39855458  1
  Zr  Zr22  1  0.45840281  0.03333654  0.73176192  1
  N  N23  1  0.60236338  0.10066279  0.83607211  1
  Ta  Ta24  1  0.20893330  0.18161988  0.13920399  1
  N  N25  1  0.56059187  0.46153807  0.29981356  1
  Ta  Ta26  1  0.29961352  0.34774878  0.29785870  1
  N  N27  1  0.48836891  0.47065306  0.54212664  1
  Ta  Ta28  1  0.33686129  0.35226994  0.53925880  1
  N  N29  1  0.49149176  0.63970302  0.85467173  1
  Ta  Ta30  1  0.45789102  0.75725156  -0.02476321  1
  N  N31  1  0.50556129  0.90630249  0.05059111  1
  Ta  Ta32  1  0.43102558  0.53557221  0.38821942  1
  N  N33  1  0.47882156  0.74498985  0.59604666  1
  Zr  Zr34  1  0.37942295  0.72211074  0.72998956  1
  C  C35  1  0.48296676  0.86480895  0.82354498  1
  Ta  Ta36  1  0.62531099  -0.05582542  -0.07591279  1
  N  N37  1  0.90317727  0.17679519  -0.00518399  1
  Ta  Ta38  1  0.76141000  -0.12309286  0.41309803  1
  N  N39  1  0.99908938  0.16317912  0.53834049  1
  Zr  Zr40  1  0.74144123  0.04084540  0.68983608  1
  C  C41  1  0.82681609  0.20253270  0.75987166  1
  Ta  Ta42  1  0.71676941  0.19148410  -0.07901360  1
  N  N43  1  0.82990987  0.55922530  0.19406323  1
  Ta  Ta44  1  0.56190387  0.35562794  0.43675162  1
  N  N45  1  0.81865967  0.58675957  0.44844549  1
  Zr  Zr46  1  0.68427483  0.32300593  0.67529022  1
  C  C47  1  0.81152340  0.32780157  0.81079906  1
  Ta  Ta48  1  0.64620485  0.71213814  -0.18799084  1
  N  N49  1  0.75048225  0.77372524  0.29042390  1
  Zr  Zr50  1  0.69984556  0.59815936  0.31304893  1
  C  C51  1  0.92467006  0.83148162  0.48269326  1
  Ta  Ta52  1  0.61640216  0.83630121  0.61426191  1
  N  N53  1  0.70907212  0.87105261  0.78173088  1
