# generated using pymatgen
data_Zr9C5N4
_symmetry_space_group_name_H-M   'P 1'
_cell_length_a   10.96646145
_cell_length_b   11.19141572
_cell_length_c   11.22966795
_cell_angle_alpha   90.13018031
_cell_angle_beta   89.60220634
_cell_angle_gamma   90.64761494
_symmetry_Int_Tables_number   1
_chemical_formula_structural   Zr9C5N4
_chemical_formula_sum   'Zr27 C15 N12'
_cell_volume   1378.09515045
_cell_formula_units_Z   3
loop_
 _symmetry_equiv_pos_site_id
 _symmetry_equiv_pos_as_xyz
  1  'x, y, z'
loop_
 _atom_site_type_symbol
 _atom_site_label
 _atom_site_symmetry_multiplicity
 _atom_site_fract_x
 _atom_site_fract_y
 _atom_site_fract_z
 _atom_site_occupancy
  Zr  Zr0  1  -0.06610369  0.16105506  0.12752432  1
  N  N1  1  0.10435916  0.25328309  0.09890299  1
  Zr  Zr2  1  -0.07686013  -0.14585509  0.26120015  1
  C  C3  1  0.15163942  0.15985060  0.59582146  1
  Zr  Zr4  1  0.09468018  -0.03035894  0.56457372  1
  C  C5  1  0.26961546  0.13703686  0.84122654  1
  Zr  Zr6  1  -0.02515613  0.37740958  -0.04479743  1
  C  C7  1  0.10075183  0.51524347  0.05745936  1
  Zr  Zr8  1  0.12220852  0.40048320  0.20993397  1
  N  N9  1  0.17072866  0.57742147  0.46843997  1
  Zr  Zr10  1  0.06187380  0.16805651  0.78449441  1
  C  C11  1  0.13095787  0.36003072  0.82333824  1
  Zr  Zr12  1  -0.06144537  0.61556265  0.12472963  1
  N  N13  1  0.05028676  0.72111499  0.22918531  1
  Zr  Zr14  1  0.01607621  0.63531558  0.39565218  1
  C  C15  1  -0.02504945  0.84891105  0.44821315  1
  Zr  Zr16  1  -0.06051257  0.64353977  0.66989612  1
  N  N17  1  0.23295080  0.66602974  0.77154991  1
  Zr  Zr18  1  0.41863991  0.03878913  -0.07150152  1
  C  C19  1  0.62195047  0.24579180  0.13495790  1
  Zr  Zr20  1  0.27173850  0.20855444  0.44358420  1
  C  C21  1  0.42376075  0.23273081  0.57327646  1
  Zr  Zr22  1  0.33538212  0.05418981  0.66713725  1
  C  C23  1  0.58749377  0.13771503  0.86610132  1
  Zr  Zr24  1  0.24860290  0.27791987  -0.02170286  1
  N  N25  1  0.59943549  0.49114447  0.32469502  1
  Zr  Zr26  1  0.50590153  0.40140516  0.47604955  1
  C  C27  1  0.47457630  0.59302843  0.52451035  1
  Zr  Zr28  1  0.26838742  0.32840303  0.68457275  1
  N  N29  1  0.55862947  0.65963389  0.78134327  1
  Zr  Zr30  1  0.21104345  0.54036295  -0.11311336  1
  N  N31  1  0.62042703  0.96571209  0.11427066  1
  Zr  Zr32  1  0.32044557  0.60004983  0.38954306  1
  N  N33  1  0.51510069  0.70407617  0.52340856  1
  Zr  Zr34  1  0.39425331  0.71964451  0.70212021  1
  C  C35  1  0.42919562  0.90507193  0.77747928  1
  Zr  Zr36  1  0.72295640  0.04663161  -0.02218513  1
  C  C37  1  0.74390275  0.21864486  0.13091256  1
  Zr  Zr38  1  0.67520305  0.06262183  0.24587779  1
  N  N39  1  0.85352208  0.02933257  0.24007966  1
  Zr  Zr40  1  0.60490100  -0.01749542  0.73031000  1
  C  C41  1  0.87629874  0.19777341  0.92785008  1
  Zr  Zr42  1  0.69950327  0.31905042  -0.04220284  1
  C  C43  1  0.77163661  0.49442003  0.07937266  1
  Zr  Zr44  1  0.73456307  0.38954630  0.24699737  1
  N  N45  1  0.79733170  0.61605231  0.53751250  1
  Zr  Zr46  1  0.54319838  0.26598525  0.72853666  1
  C  C47  1  0.81817004  0.50708072  0.96564295  1
  Zr  Zr48  1  0.69312934  0.65370323  -0.09801673  1
  N  N49  1  0.81906595  0.69105780  0.26687093  1
  Zr  Zr50  1  0.67593004  0.63083872  0.38749286  1
  C  C51  1  0.98480246  0.79151750  0.55261241  1
  Zr  Zr52  1  0.67470410  0.71980163  0.64060055  1
  N  N53  1  0.81521537  0.71508354  0.77765957  1
