# generated using pymatgen
data_Ta9CN8
_symmetry_space_group_name_H-M   'P 1'
_cell_length_a   11.57224568
_cell_length_b   11.35165321
_cell_length_c   11.71223539
_cell_angle_alpha   89.96067698
_cell_angle_beta   90.00053644
_cell_angle_gamma   89.99893638
_symmetry_Int_Tables_number   1
_chemical_formula_structural   Ta9CN8
_chemical_formula_sum   'Ta27 C3 N24'
_cell_volume   1538.56712932
_cell_formula_units_Z   3
loop_
 _symmetry_equiv_pos_site_id
 _symmetry_equiv_pos_as_xyz
  1  'x, y, z'
loop_
 _atom_site_type_symbol
 _atom_site_label
 _atom_site_symmetry_multiplicity
 _atom_site_fract_x
 _atom_site_fract_y
 _atom_site_fract_z
 _atom_site_occupancy
  Ta  Ta0  1  -0.09444790  0.10608704  -0.04774877  1
  N  N1  1  0.22897811  0.19680521  0.22128287  1
  Ta  Ta2  1  -0.05402603  0.07250570  0.34306260  1
  N  N3  1  0.22900636  0.19661089  0.44551766  1
  Ta  Ta4  1  -0.09442531  0.10587215  0.71408094  1
  N  N5  1  -0.00544769  0.03432834  0.83352746  1
  Ta  Ta6  1  0.01313154  0.33348930  -0.05512681  1
  N  N7  1  0.22897802  0.47005584  0.22111884  1
  Ta  Ta8  1  -0.05605531  0.33338676  0.33335918  1
  N  N9  1  0.22896715  0.46984987  0.44538196  1
  Ta  Ta10  1  0.01327596  0.33317590  0.72153656  1
  N  N11  1  -0.00544853  0.63233580  0.83320217  1
  Ta  Ta12  1  -0.09442291  0.56082444  -0.04735826  1
  N  N13  1  0.17677149  0.83346198  0.28580012  1
  Ta  Ta14  1  -0.05404798  0.59417197  0.32358781  1
  N  N15  1  0.17677627  0.83319629  0.38087458  1
  Ta  Ta16  1  -0.09440299  0.56053540  0.71449007  1
  N  N17  1  0.33792596  0.83254264  0.83361800  1
  Ta  Ta18  1  0.43226022  -0.04769233  -0.05257376  1
  N  N19  1  0.46018348  0.19306314  0.27034139  1
  Ta  Ta20  1  0.31860055  0.10186586  0.33327973  1
  N  N21  1  0.46004083  0.19313146  0.39630492  1
  Ta  Ta22  1  0.43213777  -0.04787021  0.71910303  1
  N  N23  1  0.53533956  0.04262735  0.83337468  1
  Ta  Ta24  1  0.12835579  0.33376639  0.18000991  1
  N  N25  1  0.46003682  0.47354956  0.27035289  1
  Ta  Ta26  1  0.31155693  0.33333590  0.33331305  1
  N  N27  1  0.46020523  0.47361104  0.39631653  1
  Ta  Ta28  1  0.12835639  0.33289631  0.48663313  1
  N  N29  1  0.53479177  0.62400213  0.83349812  1
  Ta  Ta30  1  0.43189692  0.71487398  -0.05270388  1
  N  N31  1  0.53221240  0.83302680  0.03600911  1
  Ta  Ta32  1  0.31856761  0.56481992  0.33338409  1
  N  N33  1  0.53233460  0.83321883  0.63069068  1
  Ta  Ta34  1  0.43191661  0.71470701  0.71905509  1
  C  C35  1  0.54984891  0.83328735  0.83317278  1
  Ta  Ta36  1  0.66673658  -0.04715743  -0.05412590  1
  N  N37  1  0.87584766  0.18015616  0.22382716  1
  Ta  Ta38  1  0.74943280  0.19448110  0.33275833  1
  N  N39  1  0.87354148  0.18773600  0.45051214  1
  Ta  Ta40  1  0.66678832  -0.04712245  0.72057680  1
  C  C41  1  0.80903568  0.20383189  0.83332929  1
  Ta  Ta42  1  0.77540889  0.33338244  -0.04233055  1
  N  N43  1  0.87364824  0.47896737  0.21618551  1
  Ta  Ta44  1  0.54833659  0.33334288  0.33333639  1
  N  N45  1  0.87592128  0.48645622  0.44279733  1
  Ta  Ta46  1  0.77544419  0.33327650  0.70907021  1
  C  C47  1  0.80906415  0.46282543  0.83342326  1
  Ta  Ta48  1  0.66665920  0.71403519  -0.05386514  1
  N  N49  1  0.91243798  0.78582898  0.31083857  1
  Ta  Ta50  1  0.74938965  0.47212399  0.33391429  1
  N  N51  1  0.91246093  0.88080930  0.35582455  1
  Ta  Ta52  1  0.66649287  0.71408022  0.72071159  1
  N  N53  1  0.75362491  0.83349021  0.83344770  1
