# generated using pymatgen
data_Zr20Ta7N27
_symmetry_space_group_name_H-M   'P 1'
_cell_length_a   11.50209497
_cell_length_b   11.74884328
_cell_length_c   11.20065017
_cell_angle_alpha   89.06260133
_cell_angle_beta   88.33353564
_cell_angle_gamma   89.02738007
_symmetry_Int_Tables_number   1
_chemical_formula_structural   Zr20Ta7N27
_chemical_formula_sum   'Zr20 Ta7 N27'
_cell_volume   1512.56574184
_cell_formula_units_Z   1
loop_
 _symmetry_equiv_pos_site_id
 _symmetry_equiv_pos_as_xyz
  1  'x, y, z'
loop_
 _atom_site_type_symbol
 _atom_site_label
 _atom_site_symmetry_multiplicity
 _atom_site_fract_x
 _atom_site_fract_y
 _atom_site_fract_z
 _atom_site_occupancy
  Ta  Ta0  1  -0.03946956  0.01550691  -0.16316865  1
  N  N1  1  0.28685206  0.27663795  0.24659807  1
  Zr  Zr2  1  0.14925568  -0.09884978  0.45724900  1
  N  N3  1  0.15171520  0.08226039  0.41959698  1
  Zr  Zr4  1  0.15177988  0.11933108  0.60112513  1
  N  N5  1  0.02080376  0.14048571  0.74339392  1
  Zr  Zr6  1  -0.04099795  0.40144262  0.05606887  1
  N  N7  1  -0.00553888  0.56531069  0.15080306  1
  Ta  Ta8  1  -0.11676067  0.47203751  0.29802378  1
  N  N9  1  0.12346547  0.52984239  0.64793782  1
  Zr  Zr10  1  -0.05457872  0.31057088  0.75414625  1
  N  N11  1  0.16119234  0.62642109  0.89554526  1
  Zr  Zr12  1  0.10466117  0.68444331  0.05748381  1
  N  N13  1  0.26745887  0.70783460  0.13152662  1
  Zr  Zr14  1  -0.03402975  0.70502286  0.32661949  1
  N  N15  1  0.17401856  0.95605062  0.63314806  1
  Zr  Zr16  1  0.03196787  0.58091019  0.78551965  1
  N  N17  1  0.30630543  0.72683841  0.66878271  1
  Zr  Zr18  1  0.32038488  -0.12401653  0.06558079  1
  N  N19  1  0.44379351  0.11746138  0.15265093  1
  Zr  Zr20  1  0.29693195  0.10432410  0.30512053  1
  N  N21  1  0.43168668  0.15897258  0.40278721  1
  Zr  Zr22  1  0.33760471  -0.10379420  0.71915096  1
  N  N23  1  0.59578237  0.10067485  0.88702563  1
  Ta  Ta24  1  0.40895813  0.27574529  0.13008812  1
  N  N25  1  0.51613133  0.33522175  0.24046786  1
  Zr  Zr26  1  0.40283753  0.32986990  0.40595309  1
  N  N27  1  0.57301263  0.38932004  0.50672854  1
  Ta  Ta28  1  0.52505773  0.45457626  0.66603310  1
  N  N29  1  0.38069567  0.51144326  0.71988868  1
  Zr  Zr30  1  0.32975521  0.65651597  -0.16060160  1
  N  N31  1  0.47718542  0.88867864  0.10896321  1
  Ta  Ta32  1  0.23704188  0.70557371  0.29790903  1
  N  N33  1  0.50118623  0.92967314  0.68525509  1
  Zr  Zr34  1  0.27764816  0.58090236  0.58077579  1
  N  N35  1  0.33750749  0.82618326  0.89276314  1
  Zr  Zr36  1  0.57998045  0.01885932  0.05411037  1
  N  N37  1  0.67241466  0.17230449  0.11507710  1
  Zr  Zr38  1  0.59094277  0.15488737  0.28337135  1
  N  N39  1  0.67573548  0.11985681  0.58314946  1
  Zr  Zr40  1  0.64191626  0.01461959  0.72413782  1
  N  N41  1  0.77768566  0.28251742  0.78000571  1
  Zr  Zr42  1  0.67215218  0.24242264  -0.06401918  1
  N  N43  1  0.78497180  0.46414983  0.13737267  1
  Zr  Zr44  1  0.65502023  0.41469723  0.31422400  1
  N  N45  1  0.83392289  0.60711078  0.42439408  1
  Zr  Zr46  1  0.71288794  0.27427023  0.59891884  1
  N  N47  1  0.98315682  0.42911996  0.88009508  1
  Ta  Ta48  1  0.83578041  0.62288541  0.09338511  1
  N  N49  1  0.81371630  0.74247617  0.20455403  1
  Zr  Zr50  1  0.68650902  0.68141193  0.32113208  1
  N  N51  1  1.00066249  0.83047603  0.43404590  1
  Ta  Ta52  1  0.72431396  0.51432296  0.51490589  1
  N  N53  1  0.82692842  0.97418863  0.78419979  1
