# generated using pymatgen
data_Zr13Ta14C17N10
_symmetry_space_group_name_H-M   'P 1'
_cell_length_a   11.19632224
_cell_length_b   11.40654309
_cell_length_c   11.28558942
_cell_angle_alpha   89.94124533
_cell_angle_beta   88.31504343
_cell_angle_gamma   89.49749295
_symmetry_Int_Tables_number   1
_chemical_formula_structural   Zr13Ta14C17N10
_chemical_formula_sum   'Zr13 Ta14 C17 N10'
_cell_volume   1440.61862904
_cell_formula_units_Z   1
loop_
 _symmetry_equiv_pos_site_id
 _symmetry_equiv_pos_as_xyz
  1  'x, y, z'
loop_
 _atom_site_type_symbol
 _atom_site_label
 _atom_site_symmetry_multiplicity
 _atom_site_fract_x
 _atom_site_fract_y
 _atom_site_fract_z
 _atom_site_occupancy
  Ta  Ta0  1  -0.04841840  0.08779343  -0.07542375  1
  N  N1  1  0.04341782  0.25018530  -0.03681965  1
  Zr  Zr2  1  -0.03405439  -0.02403669  0.39330075  1
  C  C3  1  0.23082778  0.13157562  0.55626125  1
  Zr  Zr4  1  0.04525864  0.11613934  0.63745783  1
  C  C5  1  0.10925562  0.03874380  0.81058767  1
  Zr  Zr6  1  0.06238401  0.40088743  0.07659308  1
  C  C7  1  0.13692253  0.58029590  0.02071975  1
  Ta  Ta8  1  -0.21397455  0.23885725  0.24038558  1
  N  N9  1  0.29732995  0.52826690  0.50942533  1
  Zr  Zr10  1  -0.02418488  0.36214637  0.79778279  1
  C  C11  1  0.07783649  0.61917487  0.75359433  1
  Ta  Ta12  1  -0.01637041  0.62043332  -0.07653212  1
  N  N13  1  0.03866288  0.84977851  0.28457968  1
  Zr  Zr14  1  -0.05776068  0.71763169  0.32824377  1
  C  C15  1  0.01427090  0.93105648  0.57909279  1
  Ta  Ta16  1  0.08303067  0.81135902  0.70124802  1
  C  C17  1  0.25073111  0.81811599  0.77622794  1
  Zr  Zr18  1  0.43876087  -0.00938857  -0.07379003  1
  C  C19  1  0.59834560  0.14394942  0.28151717  1
  Ta  Ta20  1  0.39446138  0.10158935  0.47654927  1
  C  C21  1  0.50276875  0.22659006  0.57028290  1
  Zr  Zr22  1  0.28043713  -0.00434060  0.70236804  1
  C  C23  1  0.58287402  0.07804446  0.81313203  1
  Ta  Ta24  1  0.18396221  0.19614508  -0.12900065  1
  N  N25  1  0.43573363  0.49174349  0.29717628  1
  Zr  Zr26  1  0.39744965  0.37324009  0.42863442  1
  C  C27  1  0.52375261  0.47948855  0.50481193  1
  Ta  Ta28  1  0.34008479  0.25202643  0.66585615  1
  N  N29  1  0.53413756  0.62522380  0.72939470  1
  Ta  Ta30  1  0.22665207  0.65233409  -0.12725157  1
  N  N31  1  0.54664374  0.93737271  0.03826692  1
  Ta  Ta32  1  0.39315397  0.61498769  0.40144582  1
  N  N33  1  0.50937642  0.71348240  0.49783549  1
  Zr  Zr34  1  0.38783193  0.69096978  0.65961399  1
  C  C35  1  0.35834584  0.82510970  0.83541915  1
  Zr  Zr36  1  0.68133103  0.05267898  0.00231329  1
  C  C37  1  0.84259248  0.12185445  0.10677181  1
  Ta  Ta38  1  0.73697294  -0.00034420  0.26302820  1
  C  C39  1  0.83128167  0.13414058  0.39568925  1
  Zr  Zr40  1  0.77034081  0.02478486  0.73712394  1
  C  C41  1  0.83796914  0.21207960  0.80026802  1
  Ta  Ta42  1  0.81932680  0.29143576  -0.01157952  1
  C  C43  1  0.90147320  0.38050535  0.20149288  1
  Ta  Ta44  1  0.64972735  0.15999396  0.45634517  1
  N  N45  1  0.75606603  0.63219169  0.46961052  1
  Zr  Zr46  1  0.62029689  0.24903218  0.74614914  1
  C  C47  1  0.89457189  0.46262201  0.95352148  1
  Ta  Ta48  1  0.80605934  0.51522083  0.12430975  1
  N  N49  1  0.80884626  0.65537674  0.21225056  1
  Zr  Zr50  1  0.67082659  0.71932149  0.34503404  1
  C  C51  1  0.79778741  0.86287410  0.37141880  1
  Ta  Ta52  1  0.62056352  0.59052532  0.58074260  1
  N  N53  1  0.82402948  0.96873380  0.89652301  1
