# generated using pymatgen
data_Zr8Ta19C20N7
_symmetry_space_group_name_H-M   'P 1'
_cell_length_a   11.25565240
_cell_length_b   11.49358300
_cell_length_c   11.21456415
_cell_angle_alpha   91.25644388
_cell_angle_beta   89.07340690
_cell_angle_gamma   90.60605755
_symmetry_Int_Tables_number   1
_chemical_formula_structural   Zr8Ta19C20N7
_chemical_formula_sum   'Zr8 Ta19 C20 N7'
_cell_volume   1450.18888291
_cell_formula_units_Z   1
loop_
 _symmetry_equiv_pos_site_id
 _symmetry_equiv_pos_as_xyz
  1  'x, y, z'
loop_
 _atom_site_type_symbol
 _atom_site_label
 _atom_site_symmetry_multiplicity
 _atom_site_fract_x
 _atom_site_fract_y
 _atom_site_fract_z
 _atom_site_occupancy
  Ta  Ta0  1  0.08394410  0.06717871  -0.10309419  1
  N  N1  1  0.17236474  0.15769065  0.00714036  1
  Zr  Zr2  1  0.01402495  -0.09895185  0.35841082  1
  C  C3  1  0.30212328  0.11294338  0.53827442  1
  Zr  Zr4  1  0.10970036  0.04852447  0.59390075  1
  C  C5  1  0.13799106  0.18012465  0.74618080  1
  Ta  Ta6  1  -0.04770701  0.37544330  -0.06194845  1
  C  C7  1  0.13216286  0.65787441  0.19926729  1
  Ta  Ta8  1  -0.15858876  0.33748038  0.33167957  1
  N  N9  1  0.11610741  0.62129905  0.46408639  1
  Ta  Ta10  1  -0.07028764  0.21871194  0.75266999  1
  C  C11  1  0.13664423  0.42837089  0.97227588  1
  Ta  Ta12  1  0.07733432  0.58790591  0.02480245  1
  C  C13  1  0.21873885  0.68654370  0.11415514  1
  Zr  Zr14  1  -0.00445923  0.58374302  0.31448166  1
  C  C15  1  0.15677292  0.87035188  0.49956673  1
  Ta  Ta16  1  0.02050438  0.74107726  0.55932263  1
  C  C17  1  0.21581548  0.92141703  0.87784289  1
  Ta  Ta18  1  0.38560174  -0.03938937  -0.01275175  1
  C  C19  1  0.62522402  0.13980588  0.08578297  1
  Ta  Ta20  1  0.32993667  -0.04710094  0.46026905  1
  C  C21  1  0.50434037  0.25853701  0.65228110  1
  Zr  Zr22  1  0.34122564  0.02968964  0.74231469  1
  C  C23  1  0.49601398  0.03315534  0.85724983  1
  Ta  Ta24  1  0.21496316  0.27766166  -0.09920925  1
  N  N25  1  0.58519204  0.59879575  0.17988648  1
  Ta  Ta26  1  0.48645226  0.17764979  0.47945323  1
  C  C27  1  0.62462721  0.49956998  0.46947949  1
  Ta  Ta28  1  0.30635297  0.25830384  0.64715434  1
  N  N29  1  0.44776329  0.58492265  0.95527734  1
  Ta  Ta30  1  0.33859257  0.70943138  -0.02895016  1
  C  C31  1  0.48993983  0.82330986  0.04433308  1
  Ta  Ta32  1  0.21037183  0.73184883  0.36332727  1
  N  N33  1  0.40464231  0.88923420  0.59337518  1
  Zr  Zr34  1  0.26800821  0.78328791  0.65799226  1
  C  C35  1  0.31126739  0.84691378  0.84031974  1
  Ta  Ta36  1  0.64556558  0.00463376  -0.04409479  1
  C  C37  1  0.86074652  0.17838615  0.22579117  1
  Ta  Ta38  1  0.68886105  0.11842821  0.27569540  1
  C  C39  1  0.67848925  0.22577356  0.42867529  1
  Zr  Zr40  1  0.61420217  0.08900059  0.70574562  1
  C  C41  1  0.91908305  0.18071811  0.94198075  1
  Ta  Ta42  1  0.77964826  0.24668505  0.07519818  1
  C  C43  1  0.86031180  0.46446435  0.20389788  1
  Ta  Ta44  1  0.59074122  0.36244109  0.33843194  1
  C  C45  1  0.75551622  0.46723962  0.45461420  1
  Zr  Zr46  1  0.69162316  0.33557436  0.59703445  1
  C  C47  1  0.89973932  0.39448070  0.75629276  1
  Ta  Ta48  1  0.57798271  0.66243135  0.03221033  1
  N  N49  1  0.86017116  0.73436141  0.31938261  1
  Zr  Zr50  1  0.72383920  0.59556036  0.29352938  1
  C  C51  1  0.89059068  0.74636975  0.42948443  1
  Ta  Ta52  1  0.73849137  0.60215381  0.57561195  1
  N  N53  1  0.74069550  1.03794180  0.81391842  1
