# generated using pymatgen
data_Ta27C22N5
_symmetry_space_group_name_H-M   'P 1'
_cell_length_a   11.15864283
_cell_length_b   11.21575757
_cell_length_c   11.03496943
_cell_angle_alpha   90.61509831
_cell_angle_beta   89.85226865
_cell_angle_gamma   91.81374502
_symmetry_Int_Tables_number   1
_chemical_formula_structural   Ta27C22N5
_chemical_formula_sum   'Ta27 C22 N5'
_cell_volume   1380.28055722
_cell_formula_units_Z   1
loop_
 _symmetry_equiv_pos_site_id
 _symmetry_equiv_pos_as_xyz
  1  'x, y, z'
loop_
 _atom_site_type_symbol
 _atom_site_label
 _atom_site_symmetry_multiplicity
 _atom_site_fract_x
 _atom_site_fract_y
 _atom_site_fract_z
 _atom_site_occupancy
  Ta  Ta0  1  0.09100361  0.07587198  -0.05886527  1
  N  N1  1  0.22581158  0.07883560  0.02952623  1
  Ta  Ta2  1  -0.00135444  -0.09592408  0.46933527  1
  C  C3  1  0.11300884  0.03397586  0.58933539  1
  Ta  Ta4  1  -0.04085642  0.04457556  0.72453102  1
  C  C5  1  0.07028277  0.22274878  0.81055891  1
  Ta  Ta6  1  -0.05839873  0.28922862  -0.06483753  1
  C  C7  1  0.13845469  0.61535727  0.18885094  1
  Ta  Ta8  1  -0.13663460  0.38858969  0.22624073  1
  C  C9  1  0.15415541  0.57738082  0.44474404  1
  Ta  Ta10  1  -0.05462217  0.30732384  0.66962876  1
  C  C11  1  0.17509334  0.53768645  0.92030703  1
  Ta  Ta12  1  0.06551201  0.50139218  0.06197479  1
  C  C13  1  0.27890196  0.83073282  0.15841008  1
  Ta  Ta14  1  -0.01256404  0.65403272  0.32519295  1
  C  C15  1  0.13500752  0.81138811  0.41272976  1
  Ta  Ta16  1  0.10182057  0.68780020  0.57020321  1
  C  C17  1  0.32638891  0.78299340  0.87152434  1
  Ta  Ta18  1  0.31967445  -0.06274809  0.01009268  1
  C  C19  1  0.53584593  0.06302985  0.20333911  1
  Ta  Ta20  1  0.36781958  -0.04791389  0.28088914  1
  C  C21  1  0.60651331  0.21087069  0.55174329  1
  Ta  Ta22  1  0.20245672  0.17387549  0.69278185  1
  C  C23  1  0.56675876  0.22158151  0.84286470  1
  Ta  Ta24  1  0.41285061  0.31375125  -0.11153419  1
  N  N25  1  0.42117687  0.57193642  0.08120579  1
  Ta  Ta26  1  0.48622226  0.30684270  0.46702362  1
  C  C27  1  0.53705855  0.46097308  0.54979778  1
  Ta  Ta28  1  0.35971028  0.39669451  0.64798227  1
  C  C29  1  0.45679673  0.47498509  0.79810625  1
  Ta  Ta30  1  0.27864917  0.66202733  0.05057772  1
  C  C31  1  0.46192156  1.01219145  0.11486475  1
  Ta  Ta32  1  0.25688436  0.71554752  0.32514790  1
  N  N33  1  0.40586112  0.81934282  0.36769279  1
  Ta  Ta34  1  0.29177264  0.59980824  0.79129614  1
  C  C35  1  0.43050316  0.72251721  0.87994134  1
  Ta  Ta36  1  0.56742491  0.09853926  -0.02392838  1
  C  C37  1  0.73221911  0.27471379  0.27493879  1
  Ta  Ta38  1  0.63998564  0.13562534  0.35158993  1
  C  C39  1  0.82312822  0.14668604  0.46353227  1
  Ta  Ta40  1  0.74135521  0.11902509  0.62884027  1
  C  C41  1  0.80772192  0.22408850  0.79667130  1
  Ta  Ta42  1  0.69943327  0.33931151  -0.03731157  1
  C  C43  1  0.86665077  0.44236962  0.03857039  1
  Ta  Ta44  1  0.75993547  0.33913439  0.46830163  1
  C  C45  1  0.85079869  0.50301070  0.37709806  1
  Ta  Ta46  1  0.61971844  0.34748765  0.70698024  1
  C  C47  1  0.80276793  0.35866456  0.79440746  1
  Ta  Ta48  1  0.52419013  0.57582685  -0.05184480  1
  N  N49  1  0.91693929  0.79356181  0.28940077  1
  Ta  Ta50  1  0.81864463  0.58895586  0.54117766  1
  C  C51  1  0.91590198  0.74137304  0.52352460  1
  Ta  Ta52  1  0.54993307  0.59258961  0.67353261  1
  N  N53  1  0.89376448  0.91973334  0.79131516  1
