# generated using pymatgen
data_TaN
_symmetry_space_group_name_H-M   'P 1'
_cell_length_a   8.87882803
_cell_length_b   8.87802397
_cell_length_c   8.87964993
_cell_angle_alpha   89.99568796
_cell_angle_beta   89.99655433
_cell_angle_gamma   89.99959439
_symmetry_Int_Tables_number   1
_chemical_formula_structural   TaN
_chemical_formula_sum   'Ta27 N27'
_cell_volume   699.95126032
_cell_formula_units_Z   27
loop_
 _symmetry_equiv_pos_site_id
 _symmetry_equiv_pos_as_xyz
  1  'x, y, z'
loop_
 _atom_site_type_symbol
 _atom_site_label
 _atom_site_symmetry_multiplicity
 _atom_site_fract_x
 _atom_site_fract_y
 _atom_site_fract_z
 _atom_site_occupancy
  Ta  Ta0  1  -0.00905247  -0.01534140  -0.00521892  1
  N  N1  1  0.17059025  0.16744910  0.18582228  1
  Ta  Ta2  1  0.01900427  0.00751842  0.34312548  1
  N  N3  1  0.15890921  0.15758510  0.48770200  1
  Ta  Ta4  1  0.00630504  -0.00010772  0.66522819  1
  N  N5  1  0.17824647  0.16330533  0.82330498  1
  Ta  Ta6  1  -0.01237830  0.34721320  -0.00107208  1
  N  N7  1  0.16515626  0.49323533  0.17132359  1
  Ta  Ta8  1  0.01990720  0.33110843  0.33318032  1
  N  N9  1  0.15084736  0.50351471  0.49779720  1
  Ta  Ta10  1  0.00134206  0.34677754  0.67225068  1
  N  N11  1  0.17195640  0.48477403  0.82776311  1
  Ta  Ta12  1  -0.01394809  0.67257699  0.01100111  1
  N  N13  1  0.16691154  0.83455117  0.16436875  1
  Ta  Ta14  1  0.01054058  0.66536772  0.34512004  1
  N  N15  1  0.15534878  0.83483294  0.49398612  1
  Ta  Ta16  1  -0.00789532  0.65916680  0.64789925  1
  N  N17  1  0.17452094  0.84719137  0.83786412  1
  Ta  Ta18  1  0.32536695  -0.01327408  -0.01301713  1
  N  N19  1  0.50473029  0.17441828  0.18473878  1
  Ta  Ta20  1  0.32499190  0.01296807  0.33110777  1
  N  N21  1  0.50995666  0.16205701  0.48975435  1
  Ta  Ta22  1  0.32906730  0.00317844  0.68622613  1
  N  N23  1  0.49200358  0.16734952  0.82131125  1
  Ta  Ta24  1  0.33131792  0.34321419  -0.00776776  1
  N  N25  1  0.49872862  0.49879758  0.17238448  1
  Ta  Ta26  1  0.33301262  0.32438959  0.31575974  1
  N  N27  1  0.50844750  0.51395409  0.49981061  1
  Ta  Ta28  1  0.33399827  0.33559397  0.69308968  1
  N  N29  1  0.48352469  0.49410407  0.82500956  1
  Ta  Ta30  1  0.34114714  0.67574182  -0.00019130  1
  N  N31  1  0.49767396  0.82069896  0.16465277  1
  Ta  Ta32  1  0.34163089  0.66770845  0.33005893  1
  N  N33  1  0.50948297  0.81995980  0.49815637  1
  Ta  Ta34  1  0.34633950  0.66428616  0.67388521  1
  N  N35  1  0.48433451  0.83439582  0.83242886  1
  Ta  Ta36  1  0.68732932  -0.00081663  0.00029925  1
  N  N37  1  0.82078840  0.16961851  0.15820510  1
  Ta  Ta38  1  0.65895883  0.01590174  0.34011429  1
  N  N39  1  0.82759875  0.15863392  0.50014000  1
  Ta  Ta40  1  0.66925520  0.00637811  0.66443734  1
  N  N41  1  0.82679716  0.16534191  0.83787591  1
  Ta  Ta42  1  0.68366377  0.33107749  0.00988168  1
  N  N43  1  0.83224405  0.49785471  0.14708996  1
  Ta  Ta44  1  0.65153945  0.32097940  0.32337419  1
  N  N45  1  0.83592501  0.51324724  0.51325079  1
  Ta  Ta46  1  0.66789913  0.33223581  0.67078944  1
  N  N47  1  0.84091967  0.48826269  0.83493144  1
  Ta  Ta48  1  0.67684347  0.67397152  0.01788028  1
  N  N49  1  0.83217240  0.82885556  0.14345120  1
  Ta  Ta50  1  0.65267734  0.66847787  0.34533667  1
  N  N51  1  0.83091162  0.82213930  0.50799867  1
  Ta  Ta52  1  0.66636789  0.66610940  0.64148283  1
  N  N53  1  0.83604109  0.84147066  0.84461647  1
