# generated using pymatgen
data_Zr20Ta7C8N19
_symmetry_space_group_name_H-M   'P 1'
_cell_length_a   11.17684015
_cell_length_b   11.25165950
_cell_length_c   11.29191589
_cell_angle_alpha   91.08850151
_cell_angle_beta   90.54111435
_cell_angle_gamma   90.33291620
_symmetry_Int_Tables_number   1
_chemical_formula_structural   Zr20Ta7C8N19
_chemical_formula_sum   'Zr20 Ta7 C8 N19'
_cell_volume   1419.70370209
_cell_formula_units_Z   1
loop_
 _symmetry_equiv_pos_site_id
 _symmetry_equiv_pos_as_xyz
  1  'x, y, z'
loop_
 _atom_site_type_symbol
 _atom_site_label
 _atom_site_symmetry_multiplicity
 _atom_site_fract_x
 _atom_site_fract_y
 _atom_site_fract_z
 _atom_site_occupancy
  Ta  Ta0  1  0.01876931  0.08666963  -0.13194627  1
  N  N1  1  0.19260710  0.14362629  0.33543116  1
  Zr  Zr2  1  -0.03051465  -0.09295764  0.36163529  1
  C  C3  1  0.27303620  0.09609343  0.56513983  1
  Zr  Zr4  1  0.08452194  0.00422867  0.63066292  1
  C  C5  1  0.14302693  0.16979056  0.77139319  1
  Zr  Zr6  1  -0.13229795  0.29681951  0.02132366  1
  N  N7  1  0.12517488  0.63746926  0.19138554  1
  Ta  Ta8  1  0.11465393  0.20072885  0.47479794  1
  N  N9  1  0.07028976  0.60617703  0.42514319  1
  Zr  Zr10  1  0.02407987  0.32869359  0.74177485  1
  N  N11  1  0.19876855  0.55944033  0.91615461  1
  Zr  Zr12  1  0.08471532  0.52996353  0.04384653  1
  N  N13  1  0.15602162  0.88344986  0.28722606  1
  Zr  Zr14  1  -0.04276729  0.57358113  0.27953403  1
  C  C15  1  0.16147176  0.83609035  0.51652848  1
  Zr  Zr16  1  0.00927315  0.72011843  0.54749953  1
  N  N17  1  0.14552912  0.82052435  0.80188565  1
  Zr  Zr18  1  0.42895223  -0.06578301  -0.06333092  1
  N  N19  1  0.47306950  0.15761834  0.26053960  1
  Zr  Zr20  1  0.26333395  -0.02466143  0.40714704  1
  N  N21  1  0.50611977  0.14940393  0.39121889  1
  Zr  Zr22  1  0.46190641  0.04108479  0.64618308  1
  C  C23  1  0.49010223  0.10491599  0.83630462  1
  Ta  Ta24  1  0.30663805  0.15911747  -0.12611787  1
  N  N25  1  0.49343769  0.42022266  0.26713849  1
  Zr  Zr26  1  0.35081263  0.25296492  0.37901247  1
  N  N27  1  0.49430668  0.40966402  0.38078825  1
  Ta  Ta28  1  0.27648306  0.25097370  0.66238929  1
  N  N29  1  0.63064898  0.59508282  0.91287751  1
  Zr  Zr30  1  0.24474775  0.72354610  -0.07180066  1
  N  N31  1  0.61256210  0.92224215  -0.04352160  1
  Ta  Ta32  1  0.18341144  0.72282394  0.32977942  1
  N  N33  1  0.66405832  0.85900006  0.47271507  1
  Zr  Zr34  1  0.27144844  0.81211536  0.68247435  1
  C  C35  1  0.41337642  0.76500677  0.81141729  1
  Zr  Zr36  1  0.57500235  0.15436323  0.02485688  1
  N  N37  1  0.67866177  0.30465192  0.03618182  1
  Zr  Zr38  1  0.73256511  0.02828299  0.46773455  1
  N  N39  1  0.65090564  0.07595923  0.62564039  1
  Zr  Zr40  1  0.68906446  0.00883621  0.80724425  1
  C  C41  1  0.88199843  0.20962938  0.83277662  1
  Zr  Zr42  1  0.65330988  0.40619742  -0.12293047  1
  N  N43  1  0.93534118  0.43734225  0.11703936  1
  Zr  Zr44  1  0.61353756  0.27649894  0.29807634  1
  N  N45  1  0.81436980  0.66390181  0.54269211  1
  Zr  Zr46  1  0.75825316  0.23215124  0.64930129  1
  C  C47  1  0.82188674  0.32199573  0.81693235  1
  Ta  Ta48  1  0.57857388  0.74975081  -0.12212598  1
  N  N49  1  0.88134634  0.73949369  0.31144869  1
  Zr  Zr50  1  0.72528096  0.69924208  0.38337071  1
  C  C51  1  0.90718600  0.92440205  0.55953950  1
  Ta  Ta52  1  0.76966904  0.81710135  0.61342297  1
  N  N53  1  0.67127254  0.79435388  0.74416806  1
