# generated using pymatgen
data_Ta3CN2
_symmetry_space_group_name_H-M   'P 1'
_cell_length_a   11.43691703
_cell_length_b   11.44655180
_cell_length_c   11.72447705
_cell_angle_alpha   90.58591156
_cell_angle_beta   89.85754354
_cell_angle_gamma   90.39595769
_symmetry_Int_Tables_number   1
_chemical_formula_structural   Ta3CN2
_chemical_formula_sum   'Ta27 C9 N18'
_cell_volume   1534.76816786
_cell_formula_units_Z   9
loop_
 _symmetry_equiv_pos_site_id
 _symmetry_equiv_pos_as_xyz
  1  'x, y, z'
loop_
 _atom_site_type_symbol
 _atom_site_label
 _atom_site_symmetry_multiplicity
 _atom_site_fract_x
 _atom_site_fract_y
 _atom_site_fract_z
 _atom_site_occupancy
  Ta  Ta0  1  0.05831261  0.04918479  -0.15546839  1
  N  N1  1  0.21247646  0.26232839  0.25821896  1
  Ta  Ta2  1  -0.06003043  0.02549517  0.42532710  1
  C  C3  1  0.06768996  0.05097134  0.54922944  1
  Ta  Ta4  1  0.03354867  -0.10326749  0.64970164  1
  C  C5  1  0.20891114  0.14897062  0.79909260  1
  Ta  Ta6  1  -0.03876757  0.26242248  -0.04165503  1
  N  N7  1  0.16369202  0.52126573  0.33964106  1
  Ta  Ta8  1  0.10833970  0.35191609  0.33427698  1
  N  N9  1  0.22926900  0.42877137  0.42941680  1
  Ta  Ta10  1  0.06734438  0.25828361  0.72297031  1
  C  C11  1  0.09329889  0.38576433  0.86791903  1
  Ta  Ta12  1  -0.05185539  0.46843560  -0.19164003  1
  N  N13  1  0.23968433  0.78330334  0.33509254  1
  Ta  Ta14  1  -0.01345769  0.74643640  0.42511416  1
  C  C15  1  0.13215289  0.76993232  0.54969093  1
  Ta  Ta16  1  0.02549291  0.63824163  0.62925987  1
  N  N17  1  0.24072636  0.79981290  0.80907202  1
  Ta  Ta18  1  0.36124743  0.05606831  -0.13741532  1
  N  N19  1  0.58568352  0.20070857  0.08264546  1
  Ta  Ta20  1  0.18758043  -0.08365856  0.43838563  1
  N  N21  1  0.47430873  0.24740898  0.36063645  1
  Ta  Ta22  1  0.22466912  0.06653896  0.63702979  1
  C  C23  1  0.53168894  0.15638386  0.78122985  1
  Ta  Ta24  1  0.21607457  0.27288965  -0.06763159  1
  N  N25  1  0.49330449  0.44368492  0.22605813  1
  Ta  Ta26  1  0.35555334  0.35284571  0.32285432  1
  N  N27  1  0.45240048  0.50403562  0.30679086  1
  Ta  Ta28  1  0.35455408  0.25363864  0.74097991  1
  N  N29  1  0.50673924  0.68299858  0.84947166  1
  Ta  Ta30  1  0.38726031  0.79366601  -0.10930254  1
  N  N31  1  0.67669028  0.89519212  0.26270167  1
  Ta  Ta32  1  0.22008031  0.65615939  0.43231253  1
  N  N33  1  0.64602327  0.80287171  0.51788052  1
  Ta  Ta34  1  0.28264134  0.81630212  0.65472262  1
  C  C35  1  0.50495452  0.93851402  0.91374902  1
  Ta  Ta36  1  0.59649008  0.10404706  -0.05393537  1
  N  N37  1  0.86602195  0.20504839  0.08267773  1
  Ta  Ta38  1  0.69166927  -0.03585904  0.43040256  1
  N  N39  1  0.79408966  0.10001779  0.44121510  1
  Ta  Ta40  1  0.55440396  -0.03662454  0.72594079  1
  C  C41  1  0.91715492  0.15835109  0.80572154  1
  Ta  Ta42  1  0.74168517  0.30922173  0.05772617  1
  N  N43  1  0.72321131  0.37711090  0.20623694  1
  Ta  Ta44  1  0.57983953  0.29437508  0.23442420  1
  N  N45  1  0.87717308  0.65221398  0.53936196  1
  Ta  Ta46  1  0.76434617  0.25209816  0.79674471  1
  C  C47  1  0.82029362  0.40107848  0.91510802  1
  Ta  Ta48  1  0.62710113  0.79604940  -0.10715223  1
  N  N49  1  0.68124102  0.78944770  0.26200503  1
  Ta  Ta50  1  0.73708659  0.71018082  0.41122193  1
  C  C51  1  0.85264362  0.86556605  0.43205969  1
  Ta  Ta52  1  0.79859414  0.81195274  0.61774209  1
  N  N53  1  0.69867211  0.84120696  0.75414017  1
