# generated using pymatgen
data_Zr27C4N23
_symmetry_space_group_name_H-M   'P 1'
_cell_length_a   10.82153439
_cell_length_b   10.08934306
_cell_length_c   10.82151033
_cell_angle_alpha   90.00142127
_cell_angle_beta   90.00587131
_cell_angle_gamma   90.00141550
_symmetry_Int_Tables_number   1
_chemical_formula_structural   Zr27C4N23
_chemical_formula_sum   'Zr27 C4 N23'
_cell_volume   1181.51600440
_cell_formula_units_Z   1
loop_
 _symmetry_equiv_pos_site_id
 _symmetry_equiv_pos_as_xyz
  1  'x, y, z'
loop_
 _atom_site_type_symbol
 _atom_site_label
 _atom_site_symmetry_multiplicity
 _atom_site_fract_x
 _atom_site_fract_y
 _atom_site_fract_z
 _atom_site_occupancy
  Zr  Zr0  1  -0.05148861  0.10774519  -0.05147781  1
  N  N1  1  0.18352703  0.18596279  0.18352851  1
  Zr  Zr2  1  0.02994980  -0.02095077  0.45005516  1
  N  N3  1  0.28765418  0.17688563  0.44810931  1
  Zr  Zr4  1  -0.12491491  -0.01308163  0.66927724  1
  N  N5  1  0.10532147  0.20548410  0.89923106  1
  Zr  Zr6  1  0.08204325  0.33318251  0.08204335  1
  N  N7  1  0.18325602  0.48082079  0.18325454  1
  Zr  Zr8  1  -0.13447962  0.33326133  0.26284605  1
  N  N9  1  0.28790680  0.48940876  0.44849664  1
  Zr  Zr10  1  0.01303591  0.33335201  0.75558428  1
  N  N11  1  0.10527008  0.46122886  0.89924548  1
  Zr  Zr12  1  -0.05143635  0.55896542  -0.05142846  1
  N  N13  1  0.26536383  0.83374255  0.26531731  1
  Zr  Zr14  1  0.03001094  0.68773257  0.45011908  1
  N  N15  1  -0.00048104  0.83331704  0.59479856  1
  Zr  Zr16  1  -0.12486023  0.67964566  0.66930188  1
  N  N17  1  0.37192617  0.83337584  0.89179556  1
  Zr  Zr18  1  0.45004960  -0.02093712  0.02995230  1
  N  N19  1  0.44810915  0.17688984  0.28764700  1
  Zr  Zr20  1  0.27883703  0.03762637  0.27883054  1
  N  N21  1  0.40887202  0.13615749  0.40886741  1
  Zr  Zr22  1  0.36180644  0.02584207  0.77135105  1
  N  N23  1  0.49743730  0.09666504  0.88867239  1
  Zr  Zr24  1  0.26283590  0.33326577  -0.13448382  1
  N  N25  1  0.44849501  0.48940700  0.28790189  1
  Zr  Zr26  1  0.27694393  0.33386112  0.27694225  1
  N  N27  1  0.40875244  0.53107319  0.40875051  1
  Zr  Zr28  1  0.32710740  0.33270840  0.57567260  1
  N  N29  1  0.49740592  0.57007775  0.88868977  1
  Zr  Zr30  1  0.45011366  0.68772206  0.03001610  1
  N  N31  1  0.59478874  0.83331700  -0.00044536  1
  Zr  Zr32  1  0.27810025  0.62913834  0.27809506  1
  N  N33  1  0.51150709  0.83323077  0.51201777  1
  Zr  Zr34  1  0.36179220  0.64090127  0.77137319  1
  C  C35  1  0.45810314  0.83339080  0.79117989  1
  Zr  Zr36  1  0.66924498  -0.01310121  -0.12494903  1
  N  N37  1  0.89922259  0.20546943  0.10532790  1
  Zr  Zr38  1  0.77143173  0.02590822  0.36175598  1
  N  N39  1  0.88870126  0.09667920  0.49746143  1
  Zr  Zr40  1  0.59478132  -0.02259636  0.59469246  1
  C  C41  1  0.82547636  0.25299022  0.82547681  1
  Zr  Zr42  1  0.75558208  0.33335614  0.01303863  1
  N  N43  1  0.89924169  0.46123616  0.10527608  1
  Zr  Zr44  1  0.57567771  0.33270901  0.32710245  1
  N  N45  1  0.88872112  0.57006154  0.49743092  1
  Zr  Zr46  1  0.68822914  0.33339222  0.68822211  1
  C  C47  1  0.82546229  0.41380086  0.82546096  1
  Zr  Zr48  1  0.66926941  0.67966915  -0.12489255  1
  N  N49  1  0.89178866  0.83337519  0.37191252  1
  Zr  Zr50  1  0.77145283  0.64083527  0.36173995  1
  C  C51  1  0.79110461  0.83339099  0.45800335  1
  Zr  Zr52  1  0.59486373  0.68912960  0.59477123  1
  N  N53  1  0.72108656  0.83327856  0.72104056  1
