# generated using pymatgen
data_Zr6Ta3C5N4
_symmetry_space_group_name_H-M   'P 1'
_cell_length_a   11.18693343
_cell_length_b   11.36003519
_cell_length_c   11.19363416
_cell_angle_alpha   89.60221981
_cell_angle_beta   89.40787610
_cell_angle_gamma   90.14801045
_symmetry_Int_Tables_number   1
_chemical_formula_structural   Zr6Ta3C5N4
_chemical_formula_sum   'Zr18 Ta9 C15 N12'
_cell_volume   1422.41606734
_cell_formula_units_Z   3
loop_
 _symmetry_equiv_pos_site_id
 _symmetry_equiv_pos_as_xyz
  1  'x, y, z'
loop_
 _atom_site_type_symbol
 _atom_site_label
 _atom_site_symmetry_multiplicity
 _atom_site_fract_x
 _atom_site_fract_y
 _atom_site_fract_z
 _atom_site_occupancy
  Ta  Ta0  1  -0.14566348  0.09833994  -0.13792098  1
  N  N1  1  0.19565879  0.27692907  0.18293841  1
  Zr  Zr2  1  0.04073067  -0.08489132  0.38214604  1
  C  C3  1  0.23944535  0.16447239  0.57008176  1
  Zr  Zr4  1  0.07563295  0.04854079  0.61894854  1
  C  C5  1  0.11857595  0.21748252  0.91375747  1
  Zr  Zr6  1  0.02255805  0.19347801  0.08736931  1
  C  C7  1  0.17975250  0.50621679  0.05469854  1
  Ta  Ta8  1  0.08000945  0.42563431  0.20500225  1
  N  N9  1  0.11620406  0.59216670  0.52335296  1
  Zr  Zr10  1  0.03253158  0.29775292  0.76536264  1
  C  C11  1  0.18718223  0.47826779  0.92227069  1
  Ta  Ta12  1  -0.00564082  0.48028667  -0.03174726  1
  N  N13  1  0.14463502  0.74232103  0.33736725  1
  Zr  Zr14  1  -0.00193411  0.64656287  0.38700350  1
  C  C15  1  0.09818894  0.86406963  0.56573859  1
  Zr  Zr16  1  0.11501410  0.70825885  0.66563979  1
  N  N17  1  0.27895546  0.67368365  0.74827910  1
  Zr  Zr18  1  0.40823799  0.05591760  -0.06742169  1
  C  C19  1  0.49435364  0.12482227  0.13136612  1
  Zr  Zr20  1  0.22519423  0.13894567  0.36463014  1
  C  C21  1  0.42222869  0.21848005  0.36362839  1
  Zr  Zr22  1  0.37936132  0.02759818  0.61915553  1
  C  C23  1  0.59805330  0.10151329  0.88851558  1
  Ta  Ta24  1  0.24409410  0.31702382  0.00699591  1
  N  N25  1  0.47332156  0.43517884  0.17773861  1
  Zr  Zr26  1  0.32442167  0.38706325  0.28927215  1
  C  C27  1  0.32624164  0.45835224  0.47507900  1
  Ta  Ta28  1  0.37858011  0.28855359  0.53722410  1
  N  N29  1  0.45921471  0.59520327  0.96219375  1
  Zr  Zr30  1  0.28983046  0.64562945  -0.06593490  1
  N  N31  1  0.65343797  0.94772570  0.23945055  1
  Ta  Ta32  1  0.25771989  0.62684294  0.43090340  1
  N  N33  1  0.57366841  0.80405818  0.46056672  1
  Zr  Zr34  1  0.42237870  0.74924155  0.67794404  1
  C  C35  1  0.41764155  0.91454729  0.78409340  1
  Zr  Zr36  1  0.66207824  0.03284648  0.06746734  1
  C  C37  1  0.83788859  0.12404121  0.04704874  1
  Zr  Zr38  1  0.51494906  0.04043629  0.32737880  1
  N  N39  1  1.00274971  0.07092376  0.46151011  1
  Zr  Zr40  1  0.62623673  -0.04697994  0.76044582  1
  C  C41  1  0.81330193  0.28836769  0.79813635  1
  Zr  Zr42  1  0.77321494  0.31434935  0.01396414  1
  C  C43  1  0.93202230  0.37571629  0.11335574  1
  Ta  Ta44  1  0.54805229  0.27764243  0.21309887  1
  N  N45  1  0.82440653  0.66872793  0.49387748  1
  Zr  Zr46  1  0.60962609  0.24719254  0.77533318  1
  C  C47  1  0.87478060  0.38130140  0.84667901  1
  Ta  Ta48  1  0.48828575  0.44162744  0.00518002  1
  N  N49  1  0.87210185  0.82852572  0.36470021  1
  Zr  Zr50  1  0.68567788  0.79456713  0.30915415  1
  C  C51  1  0.83666251  0.78805938  0.47274425  1
  Ta  Ta52  1  0.68151535  0.75559708  0.57415040  1
  N  N53  1  0.79663308  0.95078807  0.82008605  1
