# generated using pymatgen
data_ZrTa8C9
_symmetry_space_group_name_H-M   'P 1'
_cell_length_a   11.03646718
_cell_length_b   10.21624718
_cell_length_c   10.73095498
_cell_angle_alpha   89.99949528
_cell_angle_beta   90.00275117
_cell_angle_gamma   90.00053480
_symmetry_Int_Tables_number   1
_chemical_formula_structural   ZrTa8C9
_chemical_formula_sum   'Zr3 Ta24 C27'
_cell_volume   1209.92887267
_cell_formula_units_Z   3
loop_
 _symmetry_equiv_pos_site_id
 _symmetry_equiv_pos_as_xyz
  1  'x, y, z'
loop_
 _atom_site_type_symbol
 _atom_site_label
 _atom_site_symmetry_multiplicity
 _atom_site_fract_x
 _atom_site_fract_y
 _atom_site_fract_z
 _atom_site_occupancy
  Ta  Ta0  1  -0.06108763  0.01957395  -0.04093005  1
  C  C1  1  0.03288540  0.16662604  0.16383242  1
  Ta  Ta2  1  -0.06106528  0.02124649  0.37204221  1
  C  C3  1  0.02999705  0.16663906  0.49807594  1
  Ta  Ta4  1  -0.08007973  0.00208198  0.66653285  1
  C  C5  1  0.03016052  0.16674358  0.83469283  1
  Ta  Ta6  1  -0.06099035  0.31425082  -0.04114128  1
  C  C7  1  -0.01532540  0.47408399  0.16604992  1
  Ta  Ta8  1  -0.06110079  0.31211637  0.37213664  1
  C  C9  1  0.03449510  0.52374198  0.51629314  1
  Ta  Ta10  1  -0.08001017  0.33130348  0.66640915  1
  C  C11  1  0.03503851  0.52350284  0.81700688  1
  Ta  Ta12  1  -0.06678166  0.66644083  -0.06156323  1
  C  C13  1  -0.01525769  0.85934761  0.16676892  1
  Ta  Ta14  1  -0.06689230  0.66679990  0.39496625  1
  C  C15  1  0.03447091  0.80956134  0.51647508  1
  Ta  Ta16  1  -0.03945535  0.66653945  0.66670563  1
  C  C17  1  0.03475740  0.80932891  0.81726657  1
  Ta  Ta18  1  0.44009071  0.01720688  -0.12744657  1
  C  C19  1  0.45251899  0.16667230  0.16654732  1
  Ta  Ta20  1  0.44012213  0.01720472  0.46081939  1
  C  C21  1  0.58210675  0.16666088  0.47397468  1
  Ta  Ta22  1  0.45728101  -0.15616411  0.66666313  1
  C  C23  1  0.58208805  0.16667459  0.85932578  1
  Ta  Ta24  1  0.44010029  0.31611739  -0.12743513  1
  C  C25  1  0.57972558  0.60379339  0.16667830  1
  Ta  Ta26  1  0.44012807  0.31610600  0.46082270  1
  C  C27  1  0.54329014  0.50378288  0.45553532  1
  Ta  Ta28  1  0.45716720  0.48941939  0.66666170  1
  C  C29  1  0.54334856  0.50384406  0.87770039  1
  Ta  Ta30  1  0.41693975  0.66667158  -0.13790471  1
  C  C31  1  0.57973853  0.72953281  0.16669096  1
  Ta  Ta32  1  0.41693209  0.66667614  0.47123488  1
  C  C33  1  0.54324844  0.82961503  0.45545865  1
  Zr  Zr34  1  0.21866279  0.66665103  0.66670067  1
  C  C35  1  0.54329892  0.82955553  0.87778599  1
  Ta  Ta36  1  0.68031863  -0.02389979  -0.08353815  1
  C  C37  1  0.91640285  0.16643087  0.17690692  1
  Ta  Ta38  1  0.68044719  -0.02396279  0.41697359  1
  C  C39  1  0.90016245  0.16666404  0.52591489  1
  Zr  Zr40  1  0.64016452  0.03611450  0.66672561  1
  C  C41  1  0.90050214  0.16674927  0.80670805  1
  Ta  Ta42  1  0.68027175  0.35722477  -0.08351476  1
  C  C43  1  0.95284545  0.59883237  0.16612936  1
  Ta  Ta44  1  0.68041719  0.35729068  0.41699104  1
  C  C45  1  0.91021887  0.48255071  0.50602472  1
  Zr  Zr46  1  0.64026450  0.29733220  0.66676448  1
  C  C47  1  0.91021274  0.48282133  0.82620512  1
  Ta  Ta48  1  0.64370746  0.66666854  -0.03654513  1
  C  C49  1  0.95294496  0.73461029  0.16711099  1
  Ta  Ta50  1  0.64368114  0.66668060  0.36987878  1
  C  C51  1  0.91017660  0.85087568  0.50605551  1
  Ta  Ta52  1  0.64654232  0.66649497  0.66680354  1
  C  C53  1  0.91017274  0.85057266  0.82697212  1
