# generated using pymatgen
data_C51N13
_symmetry_space_group_name_H-M   'P 1'
_cell_length_a   19.26355913
_cell_length_b   19.27277751
_cell_length_c   19.23434939
_cell_angle_alpha   90.00071241
_cell_angle_beta   90.06425450
_cell_angle_gamma   90.00614034
_symmetry_Int_Tables_number   1
_chemical_formula_structural   C51N13
_chemical_formula_sum   'C51 N13'
_cell_volume   7140.98405187
_cell_formula_units_Z   1
loop_
 _symmetry_equiv_pos_site_id
 _symmetry_equiv_pos_as_xyz
  1  'x, y, z'
loop_
 _atom_site_type_symbol
 _atom_site_label
 _atom_site_symmetry_multiplicity
 _atom_site_fract_x
 _atom_site_fract_y
 _atom_site_fract_z
 _atom_site_occupancy
  C  C0  1  0.00005241  -0.00001802  0.00013563  1
  C  C1  1  -0.00014250  0.00002754  0.25002121  1
  C  C2  1  -0.00100953  -0.00014307  0.49995628  1
  C  C3  1  -0.00000301  0.00363185  0.75008937  1
  C  C4  1  0.00016081  0.24991475  -0.00358970  1
  C  C5  1  -0.00364735  0.24993406  0.24982973  1
  C  C6  1  0.00025612  0.24995309  0.50348095  1
  N  N7  1  0.00004464  0.25004124  0.75002307  1
  C  C8  1  -0.00384646  0.49997552  0.00007939  1
  C  C9  1  0.00009539  0.49998472  0.25007542  1
  C  C10  1  -0.00491794  0.49996855  0.49998589  1
  C  C11  1  0.00407293  0.49631567  0.75001582  1
  C  C12  1  -0.00018100  0.75003127  -0.00083822  1
  C  C13  1  0.00559568  0.75008225  0.24863923  1
  C  C14  1  0.00982485  0.74978040  0.50125604  1
  C  C15  1  -0.00083442  0.75012647  0.74999111  1
  C  C16  1  0.24984624  0.00013095  -0.00084006  1
  C  C17  1  0.24949572  -0.00251030  0.24810091  1
  C  C18  1  0.25179708  0.00014995  0.50177155  1
  C  C19  1  0.24998507  0.00040528  0.75044499  1
  C  C20  1  0.24995050  0.24987780  0.00006112  1
  C  C21  1  0.24978955  0.24968146  0.24995760  1
  C  C22  1  0.25428878  0.25101679  0.50007236  1
  C  C23  1  0.24610133  0.25364744  0.75017060  1
  C  C24  1  0.24964827  0.49991868  -0.00447951  1
  C  C25  1  0.25328444  0.50268744  0.24771017  1
  C  C26  1  0.24796495  0.50241452  0.50586492  1
  N  N27  1  0.25006445  0.49985952  0.75038126  1
  C  C28  1  0.25461009  0.75003000  0.02115626  1
  N  N29  1  0.26993252  0.75056514  0.35926445  1
  N  N30  1  0.29585776  0.75096682  0.41093139  1
  C  C31  1  0.25324823  0.74632571  0.73346204  1
  C  C32  1  0.49990907  -0.00427527  0.00086293  1
  C  C33  1  0.49994381  0.00082438  0.25410669  1
  N  N34  1  0.49876000  -0.00536536  0.50077233  1
  C  C35  1  0.50011960  -0.00290892  0.74732321  1
  C  C36  1  0.49992388  0.24972982  -0.00007668  1
  C  C37  1  0.50378297  0.25471610  0.25417570  1
  N  N38  1  0.50032929  0.23215503  0.49962832  1
  C  C39  1  0.49997223  0.25068612  0.74589951  1
  C  C40  1  0.50381857  0.50431569  0.00471247  1
  N  N41  1  0.50007083  0.50062946  0.25056541  1
  C  C42  1  0.50273225  0.49842888  0.49690721  1
  C  C43  1  0.49616412  0.50437026  0.75099432  1
  N  N44  1  0.49935208  0.74966830  -0.01952669  1
  C  C45  1  0.50105478  0.74687136  0.24138395  1
  N  N46  1  0.44486946  0.76190270  0.50443070  1
  N  N47  1  0.49941421  0.75086901  0.74226636  1
  C  C48  1  0.75010218  -0.00000351  -0.00012440  1
  C  C49  1  0.75012932  0.00370841  0.24984595  1
  C  C50  1  0.74606850  0.00069971  0.49997713  1
  C  C51  1  0.75013851  -0.00013067  0.74999706  1
  C  C52  1  0.75015718  0.25368690  0.00380020  1
  N  N53  1  0.74989243  0.25000553  0.25005795  1
  C  C54  1  0.74577108  0.25461950  0.49623569  1
  C  C55  1  0.75372595  0.24969591  0.75013558  1
  N  N56  1  0.74986970  0.49996274  0.00008356  1
  C  C57  1  0.74623516  0.49614894  0.24994152  1
  N  N58  1  0.74938896  0.50044698  0.49980041  1
  C  C59  1  0.75019751  0.50007598  0.74993807  1
  C  C60  1  0.74559088  0.74629078  0.00068251  1
  C  C61  1  0.75210129  0.75046479  0.25061200  1
  C  C62  1  0.73250041  0.74668141  0.50059939  1
  C  C63  1  0.74652820  0.75025554  0.75081032  1
