# generated using pymatgen
data_Zr27C20N7
_symmetry_space_group_name_H-M   'P 1'
_cell_length_a   10.97231530
_cell_length_b   11.22860962
_cell_length_c   10.71674348
_cell_angle_alpha   89.56234082
_cell_angle_beta   89.24681207
_cell_angle_gamma   88.63308342
_symmetry_Int_Tables_number   1
_chemical_formula_structural   Zr27C20N7
_chemical_formula_sum   'Zr27 C20 N7'
_cell_volume   1319.81879193
_cell_formula_units_Z   1
loop_
 _symmetry_equiv_pos_site_id
 _symmetry_equiv_pos_as_xyz
  1  'x, y, z'
loop_
 _atom_site_type_symbol
 _atom_site_label
 _atom_site_symmetry_multiplicity
 _atom_site_fract_x
 _atom_site_fract_y
 _atom_site_fract_z
 _atom_site_occupancy
  Zr  Zr0  1  0.06244004  0.05611798  -0.10758403  1
  N  N1  1  0.15665384  0.13996390  0.03776529  1
  Zr  Zr2  1  0.07943692  -0.13627041  0.43623044  1
  C  C3  1  0.28647663  0.11478020  0.54821075  1
  Zr  Zr4  1  0.09057608  0.08431663  0.59732323  1
  C  C5  1  0.15506415  0.18399469  0.76205439  1
  Zr  Zr6  1  0.03016319  0.29279485  0.06091107  1
  C  C7  1  0.16998274  0.61073383  0.15561011  1
  Zr  Zr8  1  -0.11424938  0.33791447  0.30222090  1
  N  N9  1  0.12603173  0.68042646  0.44928280  1
  Zr  Zr10  1  0.01273752  0.34664186  0.77617441  1
  C  C11  1  0.12841227  0.41579946  0.93849325  1
  Zr  Zr12  1  0.02326718  0.56851466  0.00624130  1
  C  C13  1  0.10803305  0.71877374  0.15147328  1
  Zr  Zr14  1  0.02343020  0.59675632  0.30682818  1
  C  C15  1  0.10540668  0.88284469  0.64980672  1
  Zr  Zr16  1  0.03427959  0.68147709  0.64821931  1
  C  C17  1  0.27547780  0.89363705  0.88962430  1
  Zr  Zr18  1  0.30963004  0.01339702  0.05781467  1
  C  C19  1  0.52199602  0.06293226  0.17143082  1
  Zr  Zr20  1  0.45028272  -0.08687516  0.31186318  1
  C  C21  1  0.56022439  0.27852534  0.54109921  1
  Zr  Zr22  1  0.33716622  0.03468198  0.74533184  1
  C  C23  1  0.42697113  0.13501891  0.89442991  1
  Zr  Zr24  1  0.26394089  0.26878765  -0.07854580  1
  N  N25  1  0.61623794  0.60564795  0.10288454  1
  Zr  Zr26  1  0.41781641  0.17669885  0.42270291  1
  C  C27  1  0.70876453  0.51583585  0.50660487  1
  Zr  Zr28  1  0.27038301  0.29551771  0.63511250  1
  N  N29  1  0.63077384  0.59889146  0.82437081  1
  Zr  Zr30  1  0.27803368  0.73262818  0.02340990  1
  C  C31  1  0.35607132  0.82893871  0.16996721  1
  Zr  Zr32  1  0.28157855  0.69605892  0.33153551  1
  N  N33  1  0.34729883  0.82141653  0.44930446  1
  Zr  Zr34  1  0.27314831  0.79930261  0.69590180  1
  C  C35  1  0.39729962  0.84014470  0.87594748  1
  Zr  Zr36  1  0.56864487  0.02237336  -0.02749089  1
  C  C37  1  0.71174504  0.29763004  0.20725271  1
  Zr  Zr38  1  0.68841861  0.11529149  0.28037234  1
  C  C39  1  0.62736090  0.19858691  0.46076026  1
  Zr  Zr40  1  0.54606381  0.20206313  0.72924958  1
  C  C41  1  0.91051401  0.18934894  0.91354055  1
  Zr  Zr42  1  0.68403657  0.29867660  0.01336427  1
  C  C43  1  0.93273595  0.46383187  0.15606624  1
  Zr  Zr44  1  0.59156012  0.38876479  0.35557727  1
  C  C45  1  0.77717811  0.46882475  0.41088111  1
  Zr  Zr46  1  0.75708680  0.32911891  0.58314686  1
  C  C47  1  0.85401706  0.29673495  0.91077389  1
  Zr  Zr48  1  0.57209731  0.70519698  -0.04243210  1
  N  N49  1  0.84795363  0.72630190  0.32231675  1
  Zr  Zr50  1  0.76212897  0.58186157  0.21151999  1
  C  C51  1  0.90563065  0.80991501  0.36485615  1
  Zr  Zr52  1  0.69389185  0.64862951  0.66193551  1
  N  N53  1  0.86769802  0.67008234  0.69825800  1
