# generated using pymatgen
data_Zr3C2N
_symmetry_space_group_name_H-M   'P 1'
_cell_length_a   10.91349096
_cell_length_b   11.09470355
_cell_length_c   10.75649573
_cell_angle_alpha   90.69423833
_cell_angle_beta   89.23170179
_cell_angle_gamma   89.83099865
_symmetry_Int_Tables_number   1
_chemical_formula_structural   Zr3C2N
_chemical_formula_sum   'Zr27 C18 N9'
_cell_volume   1302.19844750
_cell_formula_units_Z   9
loop_
 _symmetry_equiv_pos_site_id
 _symmetry_equiv_pos_as_xyz
  1  'x, y, z'
loop_
 _atom_site_type_symbol
 _atom_site_label
 _atom_site_symmetry_multiplicity
 _atom_site_fract_x
 _atom_site_fract_y
 _atom_site_fract_z
 _atom_site_occupancy
  Zr  Zr0  1  0.04719536  0.09305669  -0.06084617  1
  N  N1  1  0.16640211  0.21432955  0.01751907  1
  Zr  Zr2  1  -0.15324354  0.11629794  0.45815264  1
  C  C3  1  0.25461703  0.03865078  0.50692328  1
  Zr  Zr4  1  0.07473325  -0.02978090  0.59828026  1
  C  C5  1  0.15230141  0.11449371  0.75459882  1
  Zr  Zr6  1  0.06500539  0.37674895  -0.03011319  1
  C  C7  1  -0.01039525  0.45158476  0.14925210  1
  Zr  Zr8  1  -0.09278684  0.27681724  0.21950382  1
  N  N9  1  0.32771377  0.55829582  0.50516053  1
  Zr  Zr10  1  -0.02384250  0.23526573  0.70199384  1
  C  C11  1  0.10317948  0.54532837  0.87542618  1
  Zr  Zr12  1  -0.02443030  0.65899835  0.02047803  1
  N  N13  1  0.14204294  0.73035243  0.07181480  1
  Zr  Zr14  1  -0.10837538  0.78224591  0.37187666  1
  C  C15  1  0.18405028  0.82466736  0.69431338  1
  Zr  Zr16  1  0.03764209  0.68078136  0.74245322  1
  C  C17  1  0.23963758  0.78482966  0.80101744  1
  Zr  Zr18  1  0.42591689  -0.11600961  -0.03557716  1
  C  C19  1  0.48522772  0.12296440  0.23402811  1
  Zr  Zr20  1  0.44837426  0.09006021  0.43398739  1
  C  C21  1  0.46230648  0.24185036  0.60464557  1
  Zr  Zr22  1  0.32221112  -0.02535986  0.70684736  1
  C  C23  1  0.45457631  0.05764569  0.85787822  1
  Zr  Zr24  1  0.30431808  0.20070912  -0.11082133  1
  N  N25  1  0.57382592  0.64495087  0.22408627  1
  Zr  Zr26  1  0.40935860  0.39628466  0.47639186  1
  C  C27  1  0.59463176  0.45395591  0.42783184  1
  Zr  Zr28  1  0.24399251  0.21503635  0.59801482  1
  N  N29  1  0.52492690  0.65374089  0.77192397  1
  Zr  Zr30  1  0.25160920  0.65263710  -0.04157983  1
  C  C31  1  0.58539591  0.91898134  0.08163223  1
  Zr  Zr32  1  0.43655719  0.65819327  0.35883378  1
  N  N33  1  0.50217523  0.73696943  0.51748468  1
  Zr  Zr34  1  0.35970122  0.68443517  0.64190765  1
  C  C35  1  0.49887851  0.72808390  0.85521260  1
  Zr  Zr36  1  0.56163711  0.11490873  0.03986148  1
  C  C37  1  0.74652104  0.18396303  0.13779947  1
  Zr  Zr38  1  0.67368587  -0.00796718  0.25885891  1
  C  C39  1  0.65022782  0.11743948  0.45571217  1
  Zr  Zr40  1  0.58121110  0.09686536  0.69627859  1
  C  C41  1  0.91730513  0.24537547  0.89148539  1
  Zr  Zr42  1  0.75623431  0.31906117  -0.02618534  1
  C  C43  1  0.86681333  0.48931150  0.14612746  1
  Zr  Zr44  1  0.61984671  0.27085606  0.28368782  1
  N  N45  1  0.77202129  0.66733822  0.45989505  1
  Zr  Zr46  1  0.66331586  0.31163935  0.56196527  1
  C  C47  1  0.81036435  0.50687042  1.03116025  1
  Zr  Zr48  1  0.66335330  0.73959614  0.08909456  1
  N  N49  1  0.76576642  0.81599803  0.24210422  1
  Zr  Zr50  1  0.71990896  0.55145888  0.30112652  1
  C  C51  1  0.90096046  0.93769022  0.49126243  1
  Zr  Zr52  1  0.63611660  0.61789726  0.57381787  1
  N  N53  1  0.92927966  0.75360493  0.86541513  1
