# generated using pymatgen
data_Zr5Ta22N27
_symmetry_space_group_name_H-M   'P 1'
_cell_length_a   11.62089310
_cell_length_b   11.52113980
_cell_length_c   11.46269408
_cell_angle_alpha   90.28090493
_cell_angle_beta   89.44970411
_cell_angle_gamma   88.53855647
_symmetry_Int_Tables_number   1
_chemical_formula_structural   Zr5Ta22N27
_chemical_formula_sum   'Zr5 Ta22 N27'
_cell_volume   1534.10318714
_cell_formula_units_Z   1
loop_
 _symmetry_equiv_pos_site_id
 _symmetry_equiv_pos_as_xyz
  1  'x, y, z'
loop_
 _atom_site_type_symbol
 _atom_site_label
 _atom_site_symmetry_multiplicity
 _atom_site_fract_x
 _atom_site_fract_y
 _atom_site_fract_z
 _atom_site_occupancy
  Ta  Ta0  1  0.05123038  0.07565981  0.08551730  1
  N  N1  1  0.19838610  0.17943416  0.20191027  1
  Zr  Zr2  1  -0.06860680  -0.01748586  0.30694367  1
  N  N3  1  0.13698104  0.19156354  0.42281949  1
  Ta  Ta4  1  0.03147375  0.09835510  0.51384698  1
  N  N5  1  0.14039621  0.17295719  0.96428780  1
  Ta  Ta6  1  0.01538010  0.30849572  0.03279494  1
  N  N7  1  0.15781983  0.43313557  0.07160557  1
  Ta  Ta8  1  0.04659998  0.24840587  0.28840113  1
  N  N9  1  0.28363841  0.59466498  0.62025129  1
  Ta  Ta10  1  -0.13265897  0.28374640  0.69074432  1
  N  N11  1  0.19251989  0.47615388  0.82746188  1
  Ta  Ta12  1  0.06669617  0.52503170  -0.04349095  1
  N  N13  1  0.11042013  0.95472892  0.19120575  1
  Ta  Ta14  1  -0.11846044  0.71051527  0.27600833  1
  N  N15  1  0.08824449  0.96374404  0.42329007  1
  Ta  Ta16  1  0.15628075  0.61890186  0.73011277  1
  N  N17  1  0.22042183  0.74135397  0.82773442  1
  Ta  Ta18  1  0.29201206  0.10790998  0.05281051  1
  N  N19  1  0.35777230  0.27356915  0.03852976  1
  Ta  Ta20  1  0.19769742  0.03676259  0.30878600  1
  N  N21  1  0.71790637  0.25212135  0.61445599  1
  Ta  Ta22  1  0.30111066  -0.14271387  0.92735471  1
  N  N23  1  0.66447663  0.21512447  0.92845494  1
  Ta  Ta24  1  0.23338944  0.31741040  -0.08275104  1
  N  N25  1  0.56815642  0.54419286  0.25818887  1
  Ta  Ta26  1  0.25984288  0.33953281  0.16834856  1
  N  N27  1  0.48632526  0.41627235  0.47785041  1
  Ta  Ta28  1  0.36095604  0.45728986  0.73774027  1
  N  N29  1  0.52856986  0.47605955  0.77026309  1
  Ta  Ta30  1  0.29835517  0.59778030  -0.06383250  1
  N  N31  1  0.58965123  0.77347263  0.18142370  1
  Ta  Ta32  1  0.38809594  0.56386993  0.48550682  1
  N  N33  1  0.49925579  0.67664401  0.54896399  1
  Zr  Zr34  1  0.40928771  0.72314771  0.71728383  1
  N  N35  1  0.41817527  0.87253635  0.82527851  1
  Ta  Ta36  1  0.74177257  0.07029811  -0.11816731  1
  N  N37  1  0.93951437  0.14285951  0.21401355  1
  Ta  Ta38  1  0.71057302  -0.13092670  0.23116218  1
  N  N39  1  0.87414976  0.07369936  0.47294678  1
  Zr  Zr40  1  0.74053494  0.07562904  0.60843274  1
  N  N41  1  0.86719066  0.13630515  0.78653228  1
  Ta  Ta42  1  0.81357020  0.30576419  -0.07388151  1
  N  N43  1  0.80770842  0.59557366  0.18833438  1
  Ta  Ta44  1  0.62019408  0.43514004  0.37542303  1
  N  N45  1  0.70375776  0.53620622  0.47240526  1
  Zr  Zr46  1  0.60777914  0.30823120  0.76678617  1
  N  N47  1  0.78307748  0.39804558  0.78485442  1
  Ta  Ta48  1  0.65186448  0.62211022  0.13915759  1
  N  N49  1  0.87579643  0.84258493  0.17319312  1
  Zr  Zr50  1  0.61156578  0.69436408  0.39948355  1
  N  N51  1  0.76572409  0.78581750  0.38332049  1
  Ta  Ta52  1  0.58406113  0.52386664  0.61054348  1
  N  N53  1  0.65336632  1.02408677  0.75935836  1
