# generated using pymatgen
data_Zr10Ta17C10N17
_symmetry_space_group_name_H-M   'P 1'
_cell_length_a   11.25625455
_cell_length_b   11.46583571
_cell_length_c   11.63480179
_cell_angle_alpha   90.97367422
_cell_angle_beta   89.90576245
_cell_angle_gamma   91.15753482
_symmetry_Int_Tables_number   1
_chemical_formula_structural   Zr10Ta17C10N17
_chemical_formula_sum   'Zr10 Ta17 C10 N17'
_cell_volume   1501.09055778
_cell_formula_units_Z   1
loop_
 _symmetry_equiv_pos_site_id
 _symmetry_equiv_pos_as_xyz
  1  'x, y, z'
loop_
 _atom_site_type_symbol
 _atom_site_label
 _atom_site_symmetry_multiplicity
 _atom_site_fract_x
 _atom_site_fract_y
 _atom_site_fract_z
 _atom_site_occupancy
  Ta  Ta0  1  0.10738348  0.18035537  -0.12704188  1
  N  N1  1  0.24904412  0.20640454  0.25731346  1
  Zr  Zr2  1  -0.00882075  -0.04056209  0.34279018  1
  C  C3  1  0.16771565  0.03319361  0.44415345  1
  Zr  Zr4  1  0.07457408  0.05751282  0.61264396  1
  C  C5  1  0.21669626  0.08232034  0.74630068  1
  Ta  Ta6  1  -0.08383651  0.27810756  0.01409235  1
  N  N7  1  -0.00261243  0.42218582  0.05421985  1
  Ta  Ta8  1  0.14660607  0.20885193  0.40982189  1
  N  N9  1  0.17158633  0.66794915  0.52366252  1
  Zr  Zr10  1  -0.00885160  0.35011307  0.68988355  1
  C  C11  1  0.15881139  0.35035409  0.81424426  1
  Ta  Ta12  1  0.07120306  0.46907484  -0.08094953  1
  N  N13  1  0.08709792  0.80422199  0.32097623  1
  Zr  Zr14  1  -0.07612195  0.67336230  0.28645249  1
  C  C15  1  0.03017358  0.87434840  0.58075830  1
  Ta  Ta16  1  0.00956073  0.69139870  0.57605228  1
  N  N17  1  0.24135681  0.76539597  0.75384378  1
  Zr  Zr18  1  0.41736379  -0.03841395  0.08072408  1
  C  C19  1  0.49818928  0.14060866  0.01049839  1
  Ta  Ta20  1  0.28600317  0.04483417  0.30617115  1
  N  N21  1  0.52385915  0.24123834  0.38065010  1
  Zr  Zr22  1  0.32931756  -0.06432993  0.68823687  1
  C  C23  1  0.51628447  0.20442988  0.90868946  1
  Ta  Ta24  1  0.34636007  0.10889059  -0.11328485  1
  N  N25  1  0.46369681  0.41541028  0.24141259  1
  Ta  Ta26  1  0.37860001  0.30928362  0.33693238  1
  N  N27  1  0.60686844  0.47406990  0.44921009  1
  Ta  Ta28  1  0.25193635  0.25020356  0.68835355  1
  N  N29  1  0.49068856  0.69189678  0.82347137  1
  Ta  Ta30  1  0.34148485  0.76212984  -0.11892096  1
  N  N31  1  0.60136361  0.90056397  0.08364289  1
  Ta  Ta32  1  0.18145829  0.83909812  0.45227042  1
  N  N33  1  0.43882041  0.81100959  0.59976296  1
  Zr  Zr34  1  0.31628606  0.65758742  0.63202781  1
  C  C35  1  0.40583329  0.93698952  0.87943228  1
  Ta  Ta36  1  0.65876913  0.06469142  0.05611970  1
  N  N37  1  0.76367965  0.20451898  0.06847845  1
  Ta  Ta38  1  0.76357642  -0.12235682  0.45176156  1
  N  N39  1  0.95570206  0.20008545  0.58817263  1
  Zr  Zr40  1  0.57356895  0.04398784  0.79207192  1
  C  C41  1  0.92415174  0.21320514  0.84244376  1
  Ta  Ta42  1  0.68737581  0.28006312  -0.07598746  1
  N  N43  1  0.77337878  0.56569664  0.27531828  1
  Ta  Ta44  1  0.61053588  0.37960859  0.31954274  1
  N  N45  1  0.90120654  0.63937567  0.46421914  1
  Zr  Zr46  1  0.82058472  0.14016050  0.69257529  1
  C  C47  1  0.83831910  0.30600294  0.82122624  1
  Ta  Ta48  1  0.58255242  0.82795796  -0.07416693  1
  N  N49  1  0.83050478  0.83309541  0.30899232  1
  Zr  Zr50  1  0.70713092  0.61748195  0.42344391  1
  C  C51  1  0.91980232  0.89912413  0.53191831  1
  Ta  Ta52  1  0.57581998  0.76812218  0.68038970  1
  N  N53  1  0.66736040  0.87909012  0.78498203  1
