# generated using pymatgen
data_Zr3CN2
_symmetry_space_group_name_H-M   'P 1'
_cell_length_a   11.25977148
_cell_length_b   11.21897273
_cell_length_c   11.56381600
_cell_angle_alpha   90.06023763
_cell_angle_beta   90.04407728
_cell_angle_gamma   90.46964578
_symmetry_Int_Tables_number   1
_chemical_formula_structural   Zr3CN2
_chemical_formula_sum   'Zr27 C9 N18'
_cell_volume   1460.72640587
_cell_formula_units_Z   9
loop_
 _symmetry_equiv_pos_site_id
 _symmetry_equiv_pos_as_xyz
  1  'x, y, z'
loop_
 _atom_site_type_symbol
 _atom_site_label
 _atom_site_symmetry_multiplicity
 _atom_site_fract_x
 _atom_site_fract_y
 _atom_site_fract_z
 _atom_site_occupancy
  Zr  Zr0  1  0.07170747  0.09733989  -0.08288221  1
  N  N1  1  0.16710281  0.23312363  0.27831817  1
  Zr  Zr2  1  -0.04130483  -0.04737331  0.44268630  1
  C  C3  1  0.08909773  0.10132206  0.50140712  1
  Zr  Zr4  1  0.08820478  0.01160447  0.67446500  1
  C  C5  1  0.17283867  0.17530240  0.75621846  1
  Zr  Zr6  1  -0.05468050  0.33910331  0.01721786  1
  N  N7  1  0.25459463  0.50842778  0.29640362  1
  Zr  Zr8  1  0.01682373  0.21552815  0.36201277  1
  N  N9  1  0.09185495  0.60014262  0.47917313  1
  Zr  Zr10  1  0.00635756  0.29088008  0.73445323  1
  C  C11  1  0.07314308  0.42368881  0.87165531  1
  Zr  Zr12  1  -0.08824799  0.54287326  -0.17940317  1
  N  N13  1  0.21542089  0.80887798  0.36085483  1
  Zr  Zr14  1  -0.02650808  0.67203828  0.36149671  1
  C  C15  1  0.10710037  0.83121219  0.39402913  1
  Zr  Zr16  1  0.04122344  0.71830319  0.60459437  1
  N  N17  1  0.29686000  0.81167766  0.85867380  1
  Zr  Zr18  1  0.35394717  -0.02918792  -0.06538107  1
  N  N19  1  0.56484898  0.22459936  0.31288967  1
  Zr  Zr20  1  0.24403636  -0.01060110  0.44540538  1
  N  N21  1  0.46621354  0.22960520  0.34641976  1
  Zr  Zr22  1  0.35650130  0.10713305  0.69374430  1
  C  C23  1  0.47885915  0.09479296  0.83553161  1
  Zr  Zr24  1  0.23666546  0.32175608  -0.12970068  1
  N  N25  1  0.52603452  0.48924921  0.28713053  1
  Zr  Zr26  1  0.31064768  0.33723720  0.29262096  1
  N  N27  1  0.57397652  0.54974535  0.35507805  1
  Zr  Zr28  1  0.20370034  0.25568545  0.56264222  1
  N  N29  1  0.52269672  0.61145368  0.87089359  1
  Zr  Zr30  1  0.39940174  0.69262668  -0.04414251  1
  N  N31  1  0.51076252  0.84280899  0.01068447  1
  Zr  Zr32  1  0.25730994  0.62664177  0.41892506  1
  N  N33  1  0.63958102  0.83594778  0.51029129  1
  Zr  Zr34  1  0.30108144  0.82006870  0.68288450  1
  C  C35  1  0.56481458  0.87488043  0.91322636  1
  Zr  Zr36  1  0.62580469  0.07297478  -0.03681884  1
  N  N37  1  0.66969535  0.19197704  0.08361910  1
  Zr  Zr38  1  0.69411260  -0.03891051  0.39544492  1
  N  N39  1  0.85152125  0.09286094  0.35753950  1
  Zr  Zr40  1  0.56182737  -0.06538140  0.72737044  1
  C  C41  1  0.90879556  0.18767493  0.88091093  1
  Zr  Zr42  1  0.67529895  0.38003672  0.06891766  1
  N  N43  1  0.82907573  0.35169323  0.15996411  1
  Zr  Zr44  1  0.74610941  0.21113088  0.25472630  1
  N  N45  1  0.86178107  0.68859013  0.50738645  1
  Zr  Zr46  1  0.75247295  0.27357733  0.81818661  1
  C  C47  1  0.78402216  0.44142795  0.92305546  1
  Zr  Zr48  1  0.67094869  0.69220861  -0.08344700  1
  N  N49  1  0.75741897  0.81491296  0.27251459  1
  Zr  Zr50  1  0.69196793  0.68502789  0.40619387  1
  C  C51  1  0.85974606  0.84451741  0.31190075  1
  Zr  Zr52  1  0.77747643  0.78534622  0.63843136  1
  N  N53  1  0.78925712  0.68181953  0.78358589  1
