# generated using pymatgen
data_Zr5Ta22C16N11
_symmetry_space_group_name_H-M   'P 1'
_cell_length_a   11.14399355
_cell_length_b   11.46127729
_cell_length_c   11.25552165
_cell_angle_alpha   90.30685422
_cell_angle_beta   89.65965739
_cell_angle_gamma   90.01982215
_symmetry_Int_Tables_number   1
_chemical_formula_structural   Zr5Ta22C16N11
_chemical_formula_sum   'Zr5 Ta22 C16 N11'
_cell_volume   1437.55870168
_cell_formula_units_Z   1
loop_
 _symmetry_equiv_pos_site_id
 _symmetry_equiv_pos_as_xyz
  1  'x, y, z'
loop_
 _atom_site_type_symbol
 _atom_site_label
 _atom_site_symmetry_multiplicity
 _atom_site_fract_x
 _atom_site_fract_y
 _atom_site_fract_z
 _atom_site_occupancy
  Ta  Ta0  1  -0.02745180  0.15744883  0.06178129  1
  N  N1  1  0.05950176  0.14603162  0.21645269  1
  Zr  Zr2  1  0.07702826  -0.00378542  0.33531133  1
  C  C3  1  0.15848294  0.08076144  0.52298621  1
  Ta  Ta4  1  -0.01436421  0.04740088  0.57945956  1
  C  C5  1  0.20640145  0.24448915  0.74533065  1
  Ta  Ta6  1  -0.03083051  0.38107050  -0.10348934  1
  C  C7  1  0.17287604  0.57733584  -0.03452915  1
  Ta  Ta8  1  -0.06787143  0.21993003  0.30878484  1
  N  N9  1  0.25295213  0.65543352  0.54242927  1
  Ta  Ta10  1  0.06982806  0.13919235  0.81605748  1
  C  C11  1  0.11913734  0.47587227  0.96734794  1
  Ta  Ta12  1  -0.03245127  0.59941161  0.04942905  1
  N  N13  1  0.03595438  0.85281340  0.25324542  1
  Ta  Ta14  1  -0.06704764  0.74630778  0.35233114  1
  C  C15  1  0.01474258  0.79600662  0.54645358  1
  Ta  Ta16  1  0.10939438  0.67017187  0.63125932  1
  N  N17  1  0.18310206  0.75387658  0.75616417  1
  Ta  Ta18  1  0.30703810  -0.02601654  -0.09536262  1
  C  C19  1  0.59109841  0.16823744  0.06189732  1
  Ta  Ta20  1  0.31507454  0.14554288  0.45220249  1
  C  C21  1  0.44287579  0.17714467  0.58651547  1
  Ta  Ta22  1  0.28846926  0.07480973  0.67919300  1
  C  C23  1  0.46842425  0.24335731  0.81664485  1
  Ta  Ta24  1  0.30682407  0.21300377  -0.09394876  1
  N  N25  1  0.69961568  0.50447604  0.19754560  1
  Ta  Ta26  1  0.53196925  0.30481396  0.46433984  1
  C  C27  1  0.46308872  0.47369937  0.46588401  1
  Ta  Ta28  1  0.36114536  0.32406645  0.67468336  1
  N  N29  1  0.43755229  0.61190049  0.74135315  1
  Ta  Ta30  1  0.20984329  0.74548601  -0.07744983  1
  N  N31  1  0.62135615  0.72634945  0.23320099  1
  Ta  Ta32  1  0.38691680  0.63683467  0.43769714  1
  N  N33  1  0.50425142  0.71537451  0.52929547  1
  Zr  Zr34  1  0.37779632  0.77651429  0.68638820  1
  C  C35  1  0.43964233  0.95897795  0.76949852  1
  Ta  Ta36  1  0.53958660  0.09457251  -0.10547766  1
  C  C37  1  0.82281704  0.22871596  0.15960134  1
  Ta  Ta38  1  0.74110411  0.14666257  0.47303267  1
  C  C39  1  0.89516521  0.06764081  0.40439891  1
  Zr  Zr40  1  0.54665159  0.01089822  0.60708260  1
  C  C41  1  0.89484049  0.20705815  0.88818750  1
  Ta  Ta42  1  0.74579587  0.28255129  -0.00448309  1
  C  C43  1  0.83495199  0.45434209  0.01231391  1
  Ta  Ta44  1  0.65072960  0.21639035  0.23054249  1
  N  N45  1  0.79593408  0.66243613  0.41086575  1
  Zr  Zr46  1  0.63126759  0.26269319  0.70523933  1
  C  C47  1  0.83392388  0.54151237  0.91920277  1
  Ta  Ta48  1  0.72251596  0.65045265  0.12384733  1
  N  N49  1  0.89819900  0.67226965  0.18052147  1
  Zr  Zr50  1  0.64704477  0.58590205  0.35518102  1
  C  C51  1  0.95194910  0.88446870  0.49958414  1
  Ta  Ta52  1  0.53814115  0.55978177  0.62339097  1
  N  N53  1  0.83701545  0.65731020  0.94058489  1
