# generated using pymatgen
data_Zr10Ta17C27
_symmetry_space_group_name_H-M   'P 1'
_cell_length_a   10.42842626
_cell_length_b   10.82741338
_cell_length_c   10.92953458
_cell_angle_alpha   89.63118038
_cell_angle_beta   90.11768334
_cell_angle_gamma   89.63650265
_symmetry_Int_Tables_number   1
_chemical_formula_structural   Zr10Ta17C27
_chemical_formula_sum   'Zr10 Ta17 C27'
_cell_volume   1234.03213868
_cell_formula_units_Z   1
loop_
 _symmetry_equiv_pos_site_id
 _symmetry_equiv_pos_as_xyz
  1  'x, y, z'
loop_
 _atom_site_type_symbol
 _atom_site_label
 _atom_site_symmetry_multiplicity
 _atom_site_fract_x
 _atom_site_fract_y
 _atom_site_fract_z
 _atom_site_occupancy
  Ta  Ta0  1  0.05837598  -0.02282766  -0.10957227  1
  C  C1  1  0.18440255  0.21169277  0.21459099  1
  Zr  Zr2  1  -0.02934766  -0.07841307  0.31312940  1
  C  C3  1  0.16619059  0.22269554  0.48808332  1
  Zr  Zr4  1  0.00599407  0.07033858  0.59538846  1
  C  C5  1  0.15927427  0.13679272  0.94011416  1
  Ta  Ta6  1  0.02467400  0.21595905  0.08977089  1
  C  C7  1  0.15002212  0.44148368  0.02544175  1
  Ta  Ta8  1  0.00405976  0.26300912  0.37171861  1
  C  C9  1  0.15312668  0.35841248  0.51673753  1
  Zr  Zr10  1  0.06320744  0.25524196  0.79837505  1
  C  C11  1  0.11099705  0.40691036  0.91535885  1
  Ta  Ta12  1  -0.03940737  0.76731191  0.03726188  1
  C  C13  1  0.11755301  0.88683297  0.06281834  1
  Zr  Zr14  1  0.02872097  0.62349467  0.32104506  1
  C  C15  1  0.12441938  0.94458460  0.46874196  1
  Ta  Ta16  1  0.04429636  0.80179644  0.59049212  1
  C  C17  1  0.19742578  0.86936197  0.76822040  1
  Zr  Zr18  1  0.34468209  0.04547875  -0.13345421  1
  C  C19  1  0.45180983  0.18277180  0.00193736  1
  Ta  Ta20  1  0.21710315  0.08196985  0.35614721  1
  C  C21  1  0.44267949  0.32320128  0.43119803  1
  Zr  Zr22  1  0.28836269  -0.02070856  0.60889022  1
  C  C23  1  0.54815383  0.10449743  0.96778315  1
  Ta  Ta24  1  0.27380685  0.26576295  0.04619527  1
  C  C25  1  0.64325803  0.59232305  0.21958119  1
  Ta  Ta26  1  0.26204715  0.35771555  0.34703168  1
  C  C27  1  0.54595101  0.33065087  0.51025846  1
  Ta  Ta28  1  0.32914831  0.26345317  0.60101761  1
  C  C29  1  0.58834055  0.40314595  0.82280143  1
  Ta  Ta30  1  0.24024072  0.78226428  -0.05033774  1
  C  C31  1  0.50700175  0.77168591  -0.01234662  1
  Ta  Ta32  1  0.24262847  0.80250457  0.40702979  1
  C  C33  1  0.40256058  0.80692253  0.52984737  1
  Zr  Zr34  1  0.29658903  0.70824543  0.68402215  1
  C  C35  1  0.42546255  0.86138331  0.93983619  1
  Ta  Ta36  1  0.62732033  -0.06792554  -0.09326921  1
  C  C37  1  0.85149926  0.28228209  0.02060039  1
  Ta  Ta38  1  0.78403419  -0.10754191  0.52728521  1
  C  C39  1  0.90055173  0.23725800  0.56213114  1
  Zr  Zr40  1  0.71850482  0.06988143  0.68878206  1
  C  C41  1  0.81695366  0.19802170  0.80702661  1
  Ta  Ta42  1  0.65300876  0.27275107  -0.06128877  1
  C  C43  1  0.87811470  0.63588410  0.17618345  1
  Ta  Ta44  1  0.69670769  0.40513084  0.38651492  1
  C  C45  1  0.82978224  0.31133751  0.48797025  1
  Zr  Zr46  1  0.69775115  0.35706199  0.66120870  1
  C  C47  1  0.88169444  0.22983198  0.91333989  1
  Ta  Ta48  1  0.69468124  0.72534833  0.07657954  1
  C  C49  1  0.86753338  0.76367984  0.21608750  1
  Zr  Zr50  1  0.73674824  0.68392941  0.38529737  1
  C  C51  1  0.91820698  0.75801169  0.45250120  1
  Ta  Ta52  1  0.56449800  0.83700181  0.64237880  1
  C  C53  1  0.80859814  0.87010950  0.96551592  1
