# generated using pymatgen
data_Zr4Ta23C27
_symmetry_space_group_name_H-M   'P 1'
_cell_length_a   10.85878060
_cell_length_b   10.01336008
_cell_length_c   10.85877230
_cell_angle_alpha   90.00001743
_cell_angle_beta   89.93214381
_cell_angle_gamma   90.00011068
_symmetry_Int_Tables_number   1
_chemical_formula_structural   Zr4Ta23C27
_chemical_formula_sum   'Zr4 Ta23 C27'
_cell_volume   1180.70475992
_cell_formula_units_Z   1
loop_
 _symmetry_equiv_pos_site_id
 _symmetry_equiv_pos_as_xyz
  1  'x, y, z'
loop_
 _atom_site_type_symbol
 _atom_site_label
 _atom_site_symmetry_multiplicity
 _atom_site_fract_x
 _atom_site_fract_y
 _atom_site_fract_z
 _atom_site_occupancy
  Ta  Ta0  1  -0.01228356  -0.05125891  -0.01232362  1
  C  C1  1  0.00018546  0.16660806  0.00035297  1
  Ta  Ta2  1  -0.06844809  0.01063871  0.45167329  1
  C  C3  1  0.03754752  0.16665678  0.55668333  1
  Ta  Ta4  1  -0.06074641  0.01681643  0.72271356  1
  C  C5  1  0.01690432  0.16663349  0.86531444  1
  Ta  Ta6  1  -0.01223987  0.38452244  -0.01230392  1
  C  C7  1  0.08161391  0.51781864  0.08160632  1
  Ta  Ta8  1  -0.06844708  0.32270088  0.45162679  1
  C  C9  1  -0.01368002  0.50308829  0.54393811  1
  Ta  Ta10  1  -0.06091005  0.31674116  0.72270476  1
  C  C11  1  -0.01829860  0.50846137  0.81762934  1
  Ta  Ta12  1  -0.01973742  0.66664161  -0.01974852  1
  C  C13  1  0.08161387  0.81545465  0.08159739  1
  Ta  Ta14  1  -0.11633351  0.66666175  0.45392113  1
  C  C15  1  -0.01369170  0.83023110  0.54393758  1
  Ta  Ta16  1  0.01144849  0.66666949  0.68518099  1
  C  C17  1  -0.01831859  0.82495057  0.81753732  1
  Ta  Ta18  1  0.45167772  0.01065192  -0.06843778  1
  C  C19  1  0.55665149  0.16666375  0.03756470  1
  Ta  Ta20  1  0.46853628  0.00183839  0.46853445  1
  C  C21  1  0.55488924  0.16664722  0.55487470  1
  Ta  Ta22  1  0.42591480  -0.13376070  0.69792844  1
  C  C23  1  0.58224923  0.16672352  0.90119942  1
  Ta  Ta24  1  0.45161470  0.32268847  -0.06844059  1
  C  C25  1  0.54391830  0.50308293  -0.01366467  1
  Ta  Ta26  1  0.46855761  0.33148320  0.46855381  1
  C  C27  1  0.56264801  0.49119252  0.56265876  1
  Ta  Ta28  1  0.42588042  0.46709851  0.69790681  1
  C  C29  1  0.57027884  0.47661063  0.85157747  1
  Ta  Ta30  1  0.45392385  0.66665529  -0.11631563  1
  C  C31  1  0.54390504  0.83021322  -0.01365222  1
  Ta  Ta32  1  0.47296874  0.66665561  0.47296485  1
  C  C33  1  0.56264485  0.84213173  0.56264636  1
  Zr  Zr34  1  0.26474129  0.66668878  0.65151609  1
  C  C35  1  0.57031661  0.85663674  0.85161567  1
  Ta  Ta36  1  0.72271283  0.01683289  -0.06089918  1
  C  C37  1  0.86517563  0.16665955  0.01644809  1
  Ta  Ta38  1  0.69790390  -0.13377576  0.42588468  1
  C  C39  1  0.90118806  0.16670375  0.58227927  1
  Zr  Zr40  1  0.66409839  0.00977460  0.66400430  1
  C  C41  1  0.85189233  0.16678819  0.85208909  1
  Ta  Ta42  1  0.72269477  0.31677549  -0.06099915  1
  C  C43  1  0.81762791  0.50844463  -0.01825836  1
  Ta  Ta44  1  0.69789724  0.46709900  0.42588868  1
  C  C45  1  0.85156263  0.47663126  0.57030767  1
  Zr  Zr46  1  0.66401347  0.32350370  0.66401585  1
  C  C47  1  0.85502352  0.49252882  0.85505371  1
  Ta  Ta48  1  0.68520340  0.66665874  0.01144187  1
  C  C49  1  0.81751577  0.82497228  -0.01831441  1
  Zr  Zr50  1  0.65151073  0.66666471  0.26472763  1
  C  C51  1  0.85156787  0.85664874  0.57033229  1
  Ta  Ta52  1  0.64984972  0.66667839  0.64984311  1
  C  C53  1  0.85506615  0.84047283  0.85508292  1
