# generated using pymatgen
data_Zr27C13N14
_symmetry_space_group_name_H-M   'P 1'
_cell_length_a   11.00936475
_cell_length_b   10.80047978
_cell_length_c   11.09130306
_cell_angle_alpha   89.99609804
_cell_angle_beta   89.11541273
_cell_angle_gamma   89.26954281
_symmetry_Int_Tables_number   1
_chemical_formula_structural   Zr27C13N14
_chemical_formula_sum   'Zr27 C13 N14'
_cell_volume   1318.56280612
_cell_formula_units_Z   1
loop_
 _symmetry_equiv_pos_site_id
 _symmetry_equiv_pos_as_xyz
  1  'x, y, z'
loop_
 _atom_site_type_symbol
 _atom_site_label
 _atom_site_symmetry_multiplicity
 _atom_site_fract_x
 _atom_site_fract_y
 _atom_site_fract_z
 _atom_site_occupancy
  Zr  Zr0  1  -0.15583589  0.04530117  0.01449914  1
  N  N1  1  0.16050269  0.24436413  0.28934739  1
  Zr  Zr2  1  0.03276890  -0.11723738  0.31895982  1
  C  C3  1  0.12375356  0.02699005  0.44662014  1
  Zr  Zr4  1  -0.03094500  -0.01153432  0.58384905  1
  C  C5  1  0.26234619  0.20192535  0.77831722  1
  Zr  Zr6  1  -0.00572805  0.32099968  0.06466681  1
  C  C7  1  0.16117673  0.45917712  0.02922952  1
  Zr  Zr8  1  0.00214064  0.19276395  0.37453844  1
  N  N9  1  0.20890402  0.55512877  0.42214135  1
  Zr  Zr10  1  0.07433651  0.29338392  0.77009751  1
  C  C11  1  0.13718912  0.41588215  0.91245465  1
  Zr  Zr12  1  -0.02523559  0.55091219  -0.08810842  1
  N  N13  1  0.18580044  0.77225788  0.31744390  1
  Zr  Zr14  1  0.15800687  0.73207804  0.50336661  1
  C  C15  1  0.20137434  0.94709054  0.52102672  1
  Zr  Zr16  1  -0.12467327  0.68883681  0.66436496  1
  N  N17  1  0.21305329  0.67469458  0.72904786  1
  Zr  Zr18  1  0.45033622  0.10343354  -0.19340460  1
  C  C19  1  0.63859698  0.20974516  0.21843408  1
  Zr  Zr20  1  0.26941201  0.08776733  0.31001000  1
  N  N21  1  0.36852257  0.18770264  0.44256862  1
  Zr  Zr22  1  0.25678062  0.13029293  0.58411088  1
  C  C23  1  0.64807597  0.12285713  0.88428629  1
  Zr  Zr24  1  0.28590717  0.28226541  -0.02705715  1
  N  N25  1  0.41150378  0.42592530  0.31992878  1
  Zr  Zr26  1  0.24794080  0.37324994  0.41027939  1
  C  C27  1  0.44538417  0.66178403  0.46979910  1
  Zr  Zr28  1  0.36786115  0.36545069  0.69854751  1
  N  N29  1  0.44935017  0.63047366  0.82474779  1
  Zr  Zr30  1  0.27165472  0.58472255  -0.12193212  1
  N  N31  1  0.63091759  0.88960507  0.05426794  1
  Zr  Zr32  1  0.34094275  0.61664664  0.31147155  1
  N  N33  1  0.50505292  0.66537535  0.57424444  1
  Zr  Zr34  1  0.37336754  0.76017449  0.68688960  1
  C  C35  1  0.47280139  0.90760043  0.78770807  1
  Zr  Zr36  1  0.56167017  0.06101013  0.06331494  1
  C  C37  1  0.73003079  0.16334223  0.14215459  1
  Zr  Zr38  1  0.76365491  0.01947076  0.29105515  1
  N  N39  1  0.86881198  0.05384682  0.43142183  1
  Zr  Zr40  1  0.67884379  -0.06078994  0.75947226  1
  C  C41  1  0.90963273  0.22418953  0.90061353  1
  Zr  Zr42  1  0.71463888  0.31106445  -0.00068307  1
  N  N43  1  0.85619897  0.44459484  0.01390540  1
  Zr  Zr44  1  0.51497904  0.28124350  0.36706520  1
  N  N45  1  0.74241881  0.60023670  0.57301934  1
  Zr  Zr46  1  0.81408017  0.34870584  0.75517621  1
  C  C47  1  0.94807824  0.49125337  0.72418347  1
  Zr  Zr48  1  0.54654262  0.77694001  -0.06902983  1
  N  N49  1  0.91369521  0.97917352  0.18076060  1
  Zr  Zr50  1  0.64971804  0.67480600  0.44329836  1
  C  C51  1  0.96038019  0.79678325  0.51406264  1
  Zr  Zr52  1  0.61429409  0.58991589  0.72400122  1
  N  N53  1  0.69898737  0.74612621  0.79944532  1
