# generated using pymatgen
data_Zr16Ta11C22N5
_symmetry_space_group_name_H-M   'P 1'
_cell_length_a   10.97574536
_cell_length_b   11.14155392
_cell_length_c   10.80660350
_cell_angle_alpha   89.39797726
_cell_angle_beta   90.02681284
_cell_angle_gamma   91.50727972
_symmetry_Int_Tables_number   1
_chemical_formula_structural   Zr16Ta11C22N5
_chemical_formula_sum   'Zr16 Ta11 C22 N5'
_cell_volume   1320.97539463
_cell_formula_units_Z   1
loop_
 _symmetry_equiv_pos_site_id
 _symmetry_equiv_pos_as_xyz
  1  'x, y, z'
loop_
 _atom_site_type_symbol
 _atom_site_label
 _atom_site_symmetry_multiplicity
 _atom_site_fract_x
 _atom_site_fract_y
 _atom_site_fract_z
 _atom_site_occupancy
  Ta  Ta0  1  0.07504544  0.17472152  -0.11817915  1
  N  N1  1  0.28122276  0.05546608  0.34994106  1
  Zr  Zr2  1  0.03194638  -0.05513459  0.46172602  1
  C  C3  1  0.30830473  0.18988108  0.61390471  1
  Zr  Zr4  1  0.11619383  0.14675877  0.64032807  1
  C  C5  1  0.22147629  0.08043317  0.81982582  1
  Zr  Zr6  1  -0.05894361  0.33663965  0.00314713  1
  C  C7  1  0.23637899  0.62654238  0.16781328  1
  Ta  Ta8  1  -0.17103471  0.36241381  0.25025509  1
  C  C9  1  0.10542477  0.56101802  0.44640983  1
  Zr  Zr10  1  -0.11750867  0.28013552  0.63333719  1
  C  C11  1  0.17441056  0.63113970  0.88095168  1
  Ta  Ta12  1  0.09520865  0.56870785  0.03951555  1
  C  C13  1  0.13529281  0.71170780  0.17900835  1
  Zr  Zr14  1  -0.03520383  0.60240397  0.29591649  1
  C  C15  1  0.20511464  0.83476165  0.48654185  1
  Ta  Ta16  1  0.05446070  0.70882641  0.55116974  1
  C  C17  1  0.37017655  0.86831796  0.83663750  1
  Zr  Zr18  1  0.36916908  0.03489509  -0.03423297  1
  C  C19  1  0.50292790  0.04622537  0.14436887  1
  Zr  Zr20  1  0.39070388  -0.08508456  0.35058399  1
  C  C21  1  0.50831859  0.21579066  0.39501156  1
  Zr  Zr22  1  0.32533204  -0.02119783  0.66246283  1
  C  C23  1  0.49702355  0.20980203  0.90684145  1
  Ta  Ta24  1  0.33645504  0.25154131  -0.19218724  1
  N  N25  1  0.49783415  0.52409159  0.07147111  1
  Zr  Zr26  1  0.31135913  0.21582413  0.40243008  1
  C  C27  1  0.49099806  0.39804958  0.55119077  1
  Ta  Ta28  1  0.49631977  0.20472956  0.59183896  1
  C  C29  1  0.61842512  0.52070656  0.80254877  1
  Ta  Ta30  1  0.26356612  0.75782874  0.00425104  1
  C  C31  1  0.47479407  0.93121329  0.14865825  1
  Ta  Ta32  1  0.22888117  0.67684904  0.36481089  1
  N  N33  1  0.56221445  0.95021074  0.42595224  1
  Zr  Zr34  1  0.28255146  0.69948111  0.72772658  1
  C  C35  1  0.43125563  0.77112500  0.88230382  1
  Zr  Zr36  1  0.65488620  0.13212938  0.01275568  1
  C  C37  1  0.66855068  0.26795963  0.19407762  1
  Zr  Zr38  1  0.62545550  0.08670613  0.30844785  1
  C  C39  1  0.69952888  0.22691868  0.59958916  1
  Zr  Zr40  1  0.69355618  0.01779351  0.58665591  1
  C  C41  1  0.87389644  0.23419954  0.83514769  1
  Zr  Zr42  1  0.61345492  0.39090973  0.03828695  1
  C  C43  1  0.93742299  0.48193165  0.13445498  1
  Ta  Ta44  1  0.64954147  0.34768400  0.44452208  1
  C  C45  1  0.80774838  0.47184141  0.39984612  1
  Zr  Zr46  1  0.62974904  0.32171609  0.77349136  1
  C  C47  1  0.77425905  0.27593090  0.90663064  1
  Ta  Ta48  1  0.47701545  0.58792346  -0.08583813  1
  N  N49  1  0.82503723  0.73944433  0.34421780  1
  Zr  Zr50  1  0.76587995  0.62815915  0.50407021  1
  C  C51  1  0.90552479  0.80530742  0.40019136  1
  Ta  Ta52  1  0.51444769  0.54619610  0.63910666  1
  N  N53  1  0.76794964  0.95042671  0.72006482  1
