# generated using pymatgen
data_Zr13Ta14(CN8)3
_symmetry_space_group_name_H-M   'P 1'
_cell_length_a   11.59960590
_cell_length_b   11.46807043
_cell_length_c   11.48198600
_cell_angle_alpha   91.64069247
_cell_angle_beta   90.12547370
_cell_angle_gamma   90.35729205
_symmetry_Int_Tables_number   1
_chemical_formula_structural   Zr13Ta14(CN8)3
_chemical_formula_sum   'Zr13 Ta14 C3 N24'
_cell_volume   1526.73215311
_cell_formula_units_Z   1
loop_
 _symmetry_equiv_pos_site_id
 _symmetry_equiv_pos_as_xyz
  1  'x, y, z'
loop_
 _atom_site_type_symbol
 _atom_site_label
 _atom_site_symmetry_multiplicity
 _atom_site_fract_x
 _atom_site_fract_y
 _atom_site_fract_z
 _atom_site_occupancy
  Ta  Ta0  1  -0.07613094  0.10353891  -0.12164995  1
  N  N1  1  0.11285661  0.21966229  0.26449918  1
  Zr  Zr2  1  0.07393901  -0.09422747  0.39957939  1
  N  N3  1  0.12140585  0.08811154  0.48731103  1
  Zr  Zr4  1  -0.02662233  0.10477634  0.58552569  1
  N  N5  1  0.02572686  0.15966671  0.76410693  1
  Zr  Zr6  1  0.03524269  0.36184895  0.02885352  1
  N  N7  1  0.28377357  0.36780073  0.16448122  1
  Ta  Ta8  1  0.15670683  0.39279908  0.28904030  1
  N  N9  1  0.18178246  0.43429832  0.45456461  1
  Zr  Zr10  1  0.01735031  0.34779837  0.75234399  1
  N  N11  1  0.11921593  0.37801509  0.88368848  1
  Ta  Ta12  1  -0.16543924  0.51684957  0.01539205  1
  N  N13  1  0.00449098  0.82609605  0.26203216  1
  Zr  Zr14  1  0.03002113  0.65729015  0.29362761  1
  N  N15  1  0.09426099  0.73580739  0.47185710  1
  Ta  Ta16  1  -0.02399240  0.67265317  0.55699615  1
  N  N17  1  0.32934781  0.82545702  0.80283534  1
  Zr  Zr18  1  0.37642321  -0.00157552  0.02276698  1
  N  N19  1  0.38708825  0.14175149  0.14582647  1
  Ta  Ta20  1  0.22212154  0.15984921  0.38227205  1
  N  N21  1  0.37739647  0.23903531  0.40917282  1
  Zr  Zr22  1  0.45039090  -0.05242644  0.73227045  1
  N  N23  1  0.45796974  0.05488529  0.88433339  1
  Ta  Ta24  1  0.23422462  0.20625362  0.12925152  1
  N  N25  1  0.45764169  0.49708348  0.30892314  1
  Zr  Zr26  1  0.43771468  0.31309546  0.25347350  1
  N  N27  1  0.39955657  0.51511279  0.56688040  1
  Ta  Ta28  1  0.31908962  0.36124948  0.51855975  1
  N  N29  1  0.51893730  0.66044406  0.81822763  1
  Ta  Ta30  1  0.39633278  0.73792738  -0.07953658  1
  N  N31  1  0.49878662  0.84736969  0.01426552  1
  Ta  Ta32  1  0.31858475  0.56308210  0.39904468  1
  N  N33  1  0.49224863  0.79177706  0.60481675  1
  Zr  Zr34  1  0.37133240  0.67540941  0.66721095  1
  C  C35  1  0.62193877  0.88182134  0.79191484  1
  Zr  Zr36  1  0.63473634  0.03038798  -0.06627889  1
  N  N37  1  0.92409233  0.20929268  0.01084207  1
  Ta  Ta38  1  0.81848262  -0.18861743  0.44573285  1
  N  N39  1  0.88417413  0.25783733  0.59207050  1
  Zr  Zr40  1  0.76581096  -0.02645403  0.69625118  1
  C  C41  1  0.74643031  0.13696729  0.81562836  1
  Ta  Ta42  1  0.77016930  0.26820266  -0.04394558  1
  N  N43  1  0.90776375  0.57646077  0.15569713  1
  Ta  Ta44  1  0.53433155  0.51387332  0.45886695  1
  N  N45  1  0.88477627  0.62331159  0.41269341  1
  Zr  Zr46  1  0.75825822  0.29466913  0.70164103  1
  C  C47  1  0.84851312  0.41024525  0.85695087  1
  Ta  Ta48  1  0.63054401  0.75672381  -0.06433616  1
  N  N49  1  0.73637425  0.78629468  0.30814419  1
  Zr  Zr50  1  0.76178537  0.61477120  0.27922339  1
  N  N51  1  0.90704826  0.94847584  0.48532263  1
  Ta  Ta52  1  0.62288894  0.72877698  0.67825549  1
  N  N53  1  0.73210561  0.86839356  0.85248150  1
