# generated using pymatgen
data_Ta3C2N
_symmetry_space_group_name_H-M   'P 1'
_cell_length_a   11.22715052
_cell_length_b   11.45630413
_cell_length_c   11.26970118
_cell_angle_alpha   90.15872615
_cell_angle_beta   88.77458461
_cell_angle_gamma   89.77324827
_symmetry_Int_Tables_number   1
_chemical_formula_structural   Ta3C2N
_chemical_formula_sum   'Ta27 C18 N9'
_cell_volume   1449.17879851
_cell_formula_units_Z   9
loop_
 _symmetry_equiv_pos_site_id
 _symmetry_equiv_pos_as_xyz
  1  'x, y, z'
loop_
 _atom_site_type_symbol
 _atom_site_label
 _atom_site_symmetry_multiplicity
 _atom_site_fract_x
 _atom_site_fract_y
 _atom_site_fract_z
 _atom_site_occupancy
  Ta  Ta0  1  0.01373031  0.06902883  -0.07402125  1
  N  N1  1  0.06878318  0.18163281  0.05109105  1
  Ta  Ta2  1  -0.11237339  0.08273683  0.46670475  1
  C  C3  1  0.27635874  0.07103072  0.52945740  1
  Ta  Ta4  1  0.09923364  0.01543722  0.60179459  1
  C  C5  1  0.13713797  0.11350504  0.76650758  1
  Ta  Ta6  1  -0.02359131  0.32750140  -0.01845277  1
  C  C7  1  -0.02289844  0.48378682  0.11422142  1
  Ta  Ta8  1  -0.08020238  0.20312711  0.20240174  1
  N  N9  1  0.26168303  0.60898404  0.45365905  1
  Ta  Ta10  1  0.02080791  0.27360496  0.73680686  1
  C  C11  1  0.20082466  0.63645636  0.83335865  1
  Ta  Ta12  1  0.05825529  0.57872644  -0.04055012  1
  N  N13  1  0.11072210  0.72004843  0.04874852  1
  Ta  Ta14  1  -0.16346149  0.74504190  0.36840586  1
  C  C15  1  0.18806327  0.85484714  0.63378815  1
  Ta  Ta16  1  0.09686739  0.81479434  0.80067493  1
  C  C17  1  0.24697187  0.90265997  0.89587763  1
  Ta  Ta18  1  0.39638796  -0.00942171  -0.02820604  1
  C  C19  1  0.51413210  0.09155200  0.26346700  1
  Ta  Ta20  1  0.44161155  0.11193986  0.43168130  1
  C  C21  1  0.57721321  0.23556664  0.48819555  1
  Ta  Ta22  1  0.30309197  -0.00993677  0.72197171  1
  C  C23  1  0.54299399  0.14043360  0.95818097  1
  Ta  Ta24  1  0.21379405  0.19786693  -0.08728944  1
  N  N25  1  0.53366606  0.64342151  0.22186919  1
  Ta  Ta26  1  0.45738483  0.35796290  0.53149002  1
  C  C27  1  0.54317403  0.47649846  0.42912084  1
  Ta  Ta28  1  0.26552666  0.21387999  0.64831971  1
  N  N29  1  0.45461139  0.61216147  0.68917917  1
  Ta  Ta30  1  0.26708776  0.73629242  -0.01632668  1
  C  C31  1  0.49752578  0.87419538  0.07882780  1
  Ta  Ta32  1  0.40352039  0.60788777  0.37432734  1
  N  N33  1  0.49763259  0.72499247  0.46449494  1
  Ta  Ta34  1  0.31486108  0.70610033  0.70081071  1
  C  C35  1  0.35332771  0.84649436  0.84221631  1
  Ta  Ta36  1  0.59528809  0.04122016  0.10197367  1
  C  C37  1  0.76060123  0.12492558  0.16197570  1
  Ta  Ta38  1  0.69839129  0.00756020  0.31911620  1
  C  C39  1  0.74883747  0.17681604  0.41102207  1
  Ta  Ta40  1  0.65303412  0.08971997  0.56831434  1
  C  C41  1  0.88384887  0.18837029  0.86446450  1
  Ta  Ta42  1  0.73182025  0.20799810  -0.00719323  1
  C  C43  1  0.93584230  0.39453278  0.17629855  1
  Ta  Ta44  1  0.63729081  0.24452370  0.28729143  1
  N  N45  1  0.73640578  0.65009988  0.46106840  1
  Ta  Ta46  1  0.77064168  0.23350647  0.73417757  1
  C  C47  1  1.00765949  0.42825549  0.83051404  1
  Ta  Ta48  1  0.60554114  0.78960227  0.20144663  1
  N  N49  1  0.77239354  0.71355099  0.21688130  1
  Ta  Ta50  1  0.66085263  0.56496190  0.31528382  1
  C  C51  1  0.83089249  0.91547853  0.42055981  1
  Ta  Ta52  1  0.56998042  0.61424320  0.56345346  1
  N  N53  1  0.94622293  0.87379646  0.79054733  1
