# generated using pymatgen
data_Zr6Ta21C8N19
_symmetry_space_group_name_H-M   'P 1'
_cell_length_a   11.41783675
_cell_length_b   11.49947600
_cell_length_c   11.66168989
_cell_angle_alpha   90.91587133
_cell_angle_beta   90.75599246
_cell_angle_gamma   90.06440480
_symmetry_Int_Tables_number   1
_chemical_formula_structural   Zr6Ta21C8N19
_chemical_formula_sum   'Zr6 Ta21 C8 N19'
_cell_volume   1530.83960116
_cell_formula_units_Z   1
loop_
 _symmetry_equiv_pos_site_id
 _symmetry_equiv_pos_as_xyz
  1  'x, y, z'
loop_
 _atom_site_type_symbol
 _atom_site_label
 _atom_site_symmetry_multiplicity
 _atom_site_fract_x
 _atom_site_fract_y
 _atom_site_fract_z
 _atom_site_occupancy
  Ta  Ta0  1  -0.14492247  0.08427162  0.00083877  1
  N  N1  1  0.24976166  0.17266567  0.16822434  1
  Zr  Zr2  1  -0.06868154  -0.02483295  0.32651421  1
  C  C3  1  0.08356995  0.09738691  0.42268484  1
  Ta  Ta4  1  0.02592275  0.03638267  0.58205769  1
  C  C5  1  0.29052896  0.16022589  0.83595276  1
  Ta  Ta6  1  -0.04861652  0.35179473  -0.00430838  1
  N  N7  1  0.11648091  0.34853155  0.26321977  1
  Ta  Ta8  1  0.10789015  0.17983340  0.26243890  1
  N  N9  1  0.13926872  0.63516659  0.39694343  1
  Ta  Ta10  1  -0.06256137  0.19667634  0.79733867  1
  N  N11  1  0.36911572  0.45158466  0.92650928  1
  Ta  Ta12  1  -0.12810019  0.54382845  0.07170740  1
  N  N13  1  0.08706077  0.87406035  0.29770106  1
  Zr  Zr14  1  0.00773459  0.70428427  0.30131891  1
  C  C15  1  0.15796664  0.87421218  0.58439221  1
  Ta  Ta16  1  -0.02270782  0.77807085  0.55832582  1
  N  N17  1  0.28018072  0.73051005  0.83499482  1
  Ta  Ta18  1  0.35216477  -0.00001991  -0.09315613  1
  N  N19  1  0.46947228  0.07330722  -0.00004738  1
  Ta  Ta20  1  0.18733156  -0.05733286  0.41025418  1
  N  N21  1  0.43852211  0.14203328  0.60451177  1
  Ta  Ta22  1  0.29969095  0.04742865  0.66652549  1
  C  C23  1  0.55780549  0.25435724  0.84154477  1
  Ta  Ta24  1  0.41909080  0.24715091  -0.03685699  1
  N  N25  1  0.60891325  0.50494925  0.29140488  1
  Ta  Ta26  1  0.22390492  0.33520217  0.13581346  1
  N  N27  1  0.66900104  0.56061575  0.51650829  1
  Ta  Ta28  1  0.41316674  0.25531381  0.72656831  1
  N  N29  1  0.51608913  0.66814710  0.76315178  1
  Ta  Ta30  1  0.39046024  0.61997696  -0.10104316  1
  N  N31  1  0.50983946  0.71044458  -0.00538021  1
  Ta  Ta32  1  0.21569698  0.70296619  0.51916137  1
  N  N33  1  0.54066008  0.81559447  0.55190572  1
  Zr  Zr34  1  0.37215745  0.79377512  0.70127966  1
  C  C35  1  0.45106513  0.96182136  0.76444543  1
  Ta  Ta36  1  0.60053736  0.04515903  -0.12781572  1
  N  N37  1  0.84385769  0.22967274  0.07883913  1
  Ta  Ta38  1  0.76052054  -0.17519108  0.45078707  1
  N  N39  1  0.93913342  0.16608802  0.63826829  1
  Zr  Zr40  1  0.56475368  -0.01095041  0.61386420  1
  C  C41  1  0.77489487  0.11931638  0.84315635  1
  Ta  Ta42  1  0.70974024  0.28441911  -0.04377914  1
  N  N43  1  0.90815796  0.55132539  0.22975287  1
  Ta  Ta44  1  0.54470430  0.50706826  0.42947036  1
  N  N45  1  0.87851132  0.68150370  0.45626022  1
  Zr  Zr46  1  0.69860205  0.24783099  0.70989376  1
  C  C47  1  0.83601389  0.35525369  0.83454015  1
  Ta  Ta48  1  0.62700637  0.73002332  -0.11247790  1
  N  N49  1  0.81773145  0.82038030  0.29652087  1
  Zr  Zr50  1  0.75953919  0.60428886  0.31465567  1
  C  C51  1  0.88656566  0.93491684  0.51777306  1
  Ta  Ta52  1  0.61564866  0.69071549  0.62538433  1
  N  N53  1  0.65915740  0.88779483  0.86146069  1
