# generated using pymatgen
data_Zr5Ta22C27
_symmetry_space_group_name_H-M   'P 1'
_cell_length_a   10.79637238
_cell_length_b   10.56457895
_cell_length_c   10.88958067
_cell_angle_alpha   90.01950783
_cell_angle_beta   89.77260220
_cell_angle_gamma   89.96975606
_symmetry_Int_Tables_number   1
_chemical_formula_structural   Zr5Ta22C27
_chemical_formula_sum   'Zr5 Ta22 C27'
_cell_volume   1242.04605201
_cell_formula_units_Z   1
loop_
 _symmetry_equiv_pos_site_id
 _symmetry_equiv_pos_as_xyz
  1  'x, y, z'
loop_
 _atom_site_type_symbol
 _atom_site_label
 _atom_site_symmetry_multiplicity
 _atom_site_fract_x
 _atom_site_fract_y
 _atom_site_fract_z
 _atom_site_occupancy
  Ta  Ta0  1  -0.18203817  -0.05370811  0.13929877  1
  C  C1  1  -0.00421387  0.05201849  0.14124202  1
  Zr  Zr2  1  0.06007942  0.00562434  0.32866324  1
  C  C3  1  0.03991496  0.15680567  0.49323853  1
  Ta  Ta4  1  -0.02054478  -0.01680468  0.58836814  1
  C  C5  1  0.27727595  0.23361130  0.98438060  1
  Ta  Ta6  1  -0.10445630  0.30208769  -0.04699953  1
  C  C7  1  0.20156462  0.33964403  0.00761436  1
  Ta  Ta8  1  -0.13595738  0.21251085  0.42235283  1
  C  C9  1  0.19451483  0.63850035  0.45221806  1
  Ta  Ta10  1  -0.06046131  0.24640370  0.66176232  1
  C  C11  1  0.24379544  0.66010580  0.87101471  1
  Ta  Ta12  1  -0.06408108  0.72788505  0.02749807  1
  C  C13  1  0.01725911  0.88476328  0.15531304  1
  Ta  Ta14  1  -0.05172154  0.73804111  0.28624356  1
  C  C15  1  0.16084324  0.89410266  0.63500429  1
  Ta  Ta16  1  0.06370959  0.73272689  0.54320641  1
  C  C17  1  0.26604708  0.76757098  0.81493588  1
  Ta  Ta18  1  0.40972630  0.05403819  -0.06161415  1
  C  C19  1  0.48503979  0.22007933  0.02952893  1
  Ta  Ta20  1  0.26941210  -0.10238878  0.47577601  1
  C  C21  1  0.56388635  0.30710986  0.49851294  1
  Ta  Ta22  1  0.36521174  -0.10129205  0.71388534  1
  C  C23  1  0.58197302  0.14003182  1.00180258  1
  Ta  Ta24  1  0.39784633  0.40225530  0.02896292  1
  C  C25  1  0.45986171  0.39903375  0.20281232  1
  Ta  Ta26  1  0.44767749  0.40655232  0.38435750  1
  C  C27  1  0.46751158  0.55915928  0.50911390  1
  Ta  Ta28  1  0.52125933  0.44714096  0.66400548  1
  C  C29  1  0.50079882  0.47123094  0.86371303  1
  Ta  Ta30  1  0.45082704  0.66638757  -0.12328385  1
  C  C31  1  0.52477796  0.85856087  -0.03500938  1
  Ta  Ta32  1  0.36998020  0.67584968  0.38180607  1
  C  C33  1  0.42833795  0.81025293  0.53941176  1
  Zr  Zr34  1  0.30341710  0.62718812  0.63648722  1
  C  C35  1  0.53162059  0.88414313  0.83352442  1
  Ta  Ta36  1  0.68807712  0.00014061  -0.08788319  1
  C  C37  1  0.94715801  0.14877702  0.07320441  1
  Ta  Ta38  1  0.76986191  -0.06197380  0.40600737  1
  C  C39  1  0.78779772  0.06972200  0.55170653  1
  Zr  Zr40  1  0.67072870  -0.07116675  0.66156223  1
  C  C41  1  0.78925187  0.24493954  0.80827656  1
  Ta  Ta42  1  0.63381842  0.32856997  -0.08837572  1
  C  C43  1  0.76581793  0.45509627  0.02303519  1
  Ta  Ta44  1  0.70332210  0.46062481  0.46970028  1
  C  C45  1  0.83577838  0.36564326  0.55885252  1
  Zr  Zr46  1  0.66765376  0.21297128  0.64332895  1
  C  C47  1  0.80656692  0.55779776  0.96570186  1
  Ta  Ta48  1  0.67674746  0.72045936  0.01834595  1
  C  C49  1  0.78678841  0.74018434  0.18128504  1
  Zr  Zr50  1  0.63616838  0.67002371  0.29791623  1
  C  C51  1  0.94257764  0.85171562  0.44273966  1
  Ta  Ta52  1  0.58783998  0.70020551  0.57484695  1
  C  C53  1  0.82335009  0.85904686  0.95060086  1
