# generated using pymatgen
data_Zr8Ta19C4N23
_symmetry_space_group_name_H-M   'P 1'
_cell_length_a   11.55001978
_cell_length_b   11.53339473
_cell_length_c   11.64778526
_cell_angle_alpha   90.86618145
_cell_angle_beta   90.72685011
_cell_angle_gamma   90.45084183
_symmetry_Int_Tables_number   1
_chemical_formula_structural   Zr8Ta19C4N23
_chemical_formula_sum   'Zr8 Ta19 C4 N23'
_cell_volume   1551.25983643
_cell_formula_units_Z   1
loop_
 _symmetry_equiv_pos_site_id
 _symmetry_equiv_pos_as_xyz
  1  'x, y, z'
loop_
 _atom_site_type_symbol
 _atom_site_label
 _atom_site_symmetry_multiplicity
 _atom_site_fract_x
 _atom_site_fract_y
 _atom_site_fract_z
 _atom_site_occupancy
  Ta  Ta0  1  -0.09330567  0.11346064  -0.06425590  1
  N  N1  1  0.06946112  0.18349078  0.29896891  1
  Zr  Zr2  1  0.04130351  0.02839292  0.37351392  1
  N  N3  1  0.20770737  0.00085512  0.44036652  1
  Zr  Zr4  1  -0.08138887  0.03745879  0.65149581  1
  N  N5  1  0.01430246  0.19907183  0.83134240  1
  Ta  Ta6  1  0.04371150  0.32607583  -0.04345955  1
  N  N7  1  0.13492472  0.38601667  0.11738545  1
  Ta  Ta8  1  0.01249229  0.30057215  0.20800081  1
  N  N9  1  0.33548618  0.37657493  0.43507965  1
  Ta  Ta10  1  -0.13425194  0.30218326  0.78325872  1
  N  N11  1  0.25252040  0.49550811  0.93549426  1
  Ta  Ta12  1  -0.05056732  0.53053293  0.07527569  1
  N  N13  1  0.09936965  0.87089273  0.27511948  1
  Zr  Zr14  1  -0.00486669  0.71893475  0.27607701  1
  N  N15  1  -0.03176774  0.91083606  0.51903962  1
  Ta  Ta16  1  -0.07403731  0.75014575  0.53798048  1
  N  N17  1  0.33304120  0.76635687  0.82330962  1
  Ta  Ta18  1  0.42676847  -0.14132274  -0.05548420  1
  N  N19  1  0.36544173  0.32068652  0.16080823  1
  Ta  Ta20  1  0.22883192  -0.13893985  0.37608538  1
  N  N21  1  0.59872182  0.27954303  0.60432176  1
  Zr  Zr22  1  0.44230978  -0.05397631  0.70854999  1
  N  N23  1  0.54731858  0.09492542  0.74966565  1
  Ta  Ta24  1  0.28398975  0.35911538  0.02204789  1
  N  N25  1  0.34654628  0.55005014  0.27206501  1
  Ta  Ta26  1  0.26950713  0.40119255  0.26602345  1
  N  N27  1  0.49093705  0.53710496  0.56410280  1
  Ta  Ta28  1  0.46604860  0.36799101  0.56182210  1
  N  N29  1  0.50957083  0.58478325  0.83372798  1
  Ta  Ta30  1  0.36053842  0.61844613  -0.07780702  1
  N  N31  1  0.46603915  0.71958483  0.03585573  1
  Ta  Ta32  1  0.36377387  0.55704302  0.43603428  1
  N  N33  1  0.52355353  0.81864914  0.61058054  1
  Zr  Zr34  1  0.44244699  0.66962186  0.67725717  1
  C  C35  1  0.56920536  0.85353804  0.83570795  1
  Ta  Ta36  1  0.67018916  0.01817770  -0.15399413  1
  N  N37  1  0.94493319  0.20844920  0.07103064  1
  Ta  Ta38  1  0.79850993  -0.08654411  0.43716026  1
  N  N39  1  0.81604277  0.08082906  0.51035044  1
  Zr  Zr40  1  0.65224648  0.10046284  0.58207671  1
  C  C41  1  0.74822616  0.19400611  0.88569908  1
  Ta  Ta42  1  0.79479388  0.32345883  0.02835233  1
  N  N43  1  0.85480929  0.59781416  0.20050676  1
  Ta  Ta44  1  0.82852197  0.44169251  0.27803048  1
  N  N45  1  0.75924163  0.50215881  0.40631126  1
  Zr  Zr46  1  0.59463442  0.26927234  0.79294792  1
  C  C47  1  0.89604140  0.43481911  0.91978606  1
  Ta  Ta48  1  0.60164086  0.69824477  -0.08014819  1
  N  N49  1  0.85023682  0.81620044  0.30985210  1
  Zr  Zr50  1  0.73003938  0.66600308  0.34674996  1
  C  C51  1  0.74546142  0.75072866  0.52203036  1
  Ta  Ta52  1  0.67952456  0.81691285  0.67680941  1
  N  N53  1  0.75922256  0.97191714  0.71109091  1
