# generated using pymatgen
data_Zr20Ta7C13N14
_symmetry_space_group_name_H-M   'P 1'
_cell_length_a   11.07282604
_cell_length_b   11.27680000
_cell_length_c   11.24958916
_cell_angle_alpha   90.39739249
_cell_angle_beta   89.72443780
_cell_angle_gamma   90.43904195
_symmetry_Int_Tables_number   1
_chemical_formula_structural   Zr20Ta7C13N14
_chemical_formula_sum   'Zr20 Ta7 C13 N14'
_cell_volume   1404.60078728
_cell_formula_units_Z   1
loop_
 _symmetry_equiv_pos_site_id
 _symmetry_equiv_pos_as_xyz
  1  'x, y, z'
loop_
 _atom_site_type_symbol
 _atom_site_label
 _atom_site_symmetry_multiplicity
 _atom_site_fract_x
 _atom_site_fract_y
 _atom_site_fract_z
 _atom_site_occupancy
  Ta  Ta0  1  -0.11270961  0.07787012  0.00831728  1
  N  N1  1  0.18028005  0.27247522  0.28375480  1
  Zr  Zr2  1  0.07852601  -0.02542836  0.38536236  1
  C  C3  1  0.20414927  0.08167273  0.51621406  1
  Zr  Zr4  1  0.09605449  -0.00291090  0.66472609  1
  C  C5  1  0.17727175  0.18925436  0.82209606  1
  Zr  Zr6  1  0.04872917  0.30272069  0.00523461  1
  C  C7  1  0.19809674  0.45639197  0.01949829  1
  Ta  Ta8  1  0.02868032  0.20066948  0.24364829  1
  N  N9  1  0.19063173  0.64942471  0.49249712  1
  Zr  Zr10  1  0.00198558  0.25952736  0.74657595  1
  C  C11  1  0.12250418  0.48011791  0.90841319  1
  Zr  Zr12  1  0.01722501  0.55594329  0.06906797  1
  N  N13  1  0.11609796  0.83415283  0.27585604  1
  Zr  Zr14  1  0.04633554  0.71388383  0.37276618  1
  C  C15  1  0.04431866  0.85095410  0.53989364  1
  Zr  Zr16  1  0.10743526  0.70123774  0.64804003  1
  N  N17  1  0.23657915  0.70435386  0.77586154  1
  Zr  Zr18  1  0.36695184  0.10192443  -0.13833242  1
  C  C19  1  0.68100893  0.19889909  0.20009466  1
  Zr  Zr20  1  0.30262145  0.14167790  0.34679031  1
  N  N21  1  0.43151288  0.25463832  0.38312749  1
  Zr  Zr22  1  0.37339642  -0.02834557  0.56836084  1
  C  C23  1  0.57007505  0.11824025  0.90742619  1
  Ta  Ta24  1  0.26184532  0.35858927  -0.14413416  1
  N  N25  1  0.48665373  0.41443536  0.21625076  1
  Zr  Zr26  1  0.33714379  0.41184180  0.31510965  1
  C  C27  1  0.41030836  0.50642957  0.47521901  1
  Ta  Ta28  1  0.25313222  0.21580315  0.63605803  1
  N  N29  1  0.46680082  0.64700232  0.88049259  1
  Zr  Zr30  1  0.28366367  0.62713622  -0.06990276  1
  N  N31  1  0.62878373  0.90206771  0.22782299  1
  Ta  Ta32  1  0.35009967  0.67947657  0.44212190  1
  N  N33  1  0.49374840  0.75653090  0.52522091  1
  Zr  Zr34  1  0.40873267  0.74639770  0.71629360  1
  C  C35  1  0.39765601  0.93981949  0.75959038  1
  Zr  Zr36  1  0.61438318  -0.00540839  0.06858488  1
  C  C37  1  0.75974075  0.13972473  0.12286494  1
  Zr  Zr38  1  0.78072668  0.03846035  0.30437307  1
  N  N39  1  0.94517661  0.11020191  0.35135337  1
  Zr  Zr40  1  0.60221705  -0.04634843  0.78669546  1
  C  C41  1  0.87462394  0.22507846  0.90968061  1
  Zr  Zr42  1  0.76225877  0.33957433  0.05369394  1
  N  N43  1  0.91849075  0.41670689  0.11522383  1
  Zr  Zr44  1  0.59143945  0.33003053  0.32305749  1
  N  N45  1  0.65182487  0.59002517  0.39900086  1
  Zr  Zr46  1  0.69367566  0.21649159  0.79977849  1
  C  C47  1  0.84871382  0.33902832  0.85923165  1
  Ta  Ta48  1  0.62773148  0.69376647  -0.12487109  1
  N  N49  1  0.84781159  0.75044357  0.34635494  1
  Zr  Zr50  1  0.64451310  0.77904591  0.36354015  1
  C  C51  1  0.84933554  0.85763451  0.31939099  1
  Ta  Ta52  1  0.56425611  0.58264549  0.53766192  1
  N  N53  1  0.63675447  0.84802321  0.93895098  1
