# generated using pymatgen
data_Zr20Ta7C27
_symmetry_space_group_name_H-M   'P 1'
_cell_length_a   10.47903810
_cell_length_b   10.52875061
_cell_length_c   10.47260357
_cell_angle_alpha   90.30229382
_cell_angle_beta   90.86815716
_cell_angle_gamma   89.59661535
_symmetry_Int_Tables_number   1
_chemical_formula_structural   Zr20Ta7C27
_chemical_formula_sum   'Zr20 Ta7 C27'
_cell_volume   1155.27798646
_cell_formula_units_Z   1
loop_
 _symmetry_equiv_pos_site_id
 _symmetry_equiv_pos_as_xyz
  1  'x, y, z'
loop_
 _atom_site_type_symbol
 _atom_site_label
 _atom_site_symmetry_multiplicity
 _atom_site_fract_x
 _atom_site_fract_y
 _atom_site_fract_z
 _atom_site_occupancy
  Ta  Ta0  1  -0.03714369  -0.04206757  -0.09894136  1
  C  C1  1  0.22091857  0.27129379  0.20743548  1
  Zr  Zr2  1  0.02459094  -0.13226165  0.35385518  1
  C  C3  1  0.14462620  0.17008616  0.50204237  1
  Zr  Zr4  1  -0.04731870  -0.00778837  0.61468127  1
  C  C5  1  0.08954567  0.08008687  0.79948062  1
  Zr  Zr6  1  -0.07577183  0.40733570  0.07048298  1
  C  C7  1  0.10021400  0.47926891  0.02267240  1
  Ta  Ta8  1  0.07242440  0.26557968  0.31559005  1
  C  C9  1  0.28112126  0.48787273  0.52002605  1
  Zr  Zr10  1  -0.01012670  0.25144788  0.72473304  1
  C  C11  1  0.16484318  0.65362124  0.83025615  1
  Zr  Zr12  1  0.02830104  0.67791323  0.00206149  1
  C  C13  1  0.21923962  0.74365978  0.09260371  1
  Zr  Zr14  1  -0.09243174  0.59966669  0.29585664  1
  C  C15  1  0.13035576  0.85490573  0.53911771  1
  Zr  Zr16  1  0.02961653  0.72844741  0.65783502  1
  C  C17  1  0.21228740  0.77405805  0.83050548  1
  Zr  Zr18  1  0.42374126  -0.15288319  0.02306910  1
  C  C19  1  0.51458789  0.08593792  0.18938591  1
  Zr  Zr20  1  0.33868323  0.14197216  0.34679568  1
  C  C21  1  0.53018467  0.24046463  0.51834525  1
  Zr  Zr22  1  0.22200211  -0.02060809  0.70528549  1
  C  C23  1  0.62085865  0.15007490  0.86416523  1
  Ta  Ta24  1  0.40366052  0.24968858  0.09100301  1
  C  C25  1  0.51351445  0.42602167  0.10690245  1
  Zr  Zr26  1  0.37444945  0.46241205  0.34212822  1
  C  C27  1  0.46880685  0.33621686  0.45404552  1
  Ta  Ta28  1  0.29731106  0.30710515  0.58312939  1
  C  C29  1  0.40404972  0.54622269  0.84397279  1
  Zr  Zr30  1  0.32487086  0.52344544  0.03908319  1
  C  C31  1  0.61409091  0.82910815  0.06592742  1
  Ta  Ta32  1  0.19626278  0.71642442  0.27946889  1
  C  C33  1  0.61720194  0.88425607  0.55574754  1
  Zr  Zr34  1  0.31280310  0.61083463  0.70571021  1
  C  C35  1  0.32978185  0.83659017  0.83345498  1
  Zr  Zr36  1  0.68563130  0.04419246  0.03164792  1
  C  C37  1  0.78142929  0.23365846  0.14030670  1
  Zr  Zr38  1  0.69646696  -0.00085006  0.40131437  1
  C  C39  1  0.81581200  0.15240083  0.60316514  1
  Zr  Zr40  1  0.68419122  0.02204859  0.71498925  1
  C  C41  1  0.85953860  0.32196616  0.88675537  1
  Zr  Zr42  1  0.65777484  0.32625090  -0.01801885  1
  C  C43  1  0.82577136  0.60064993  0.07652188  1
  Zr  Zr44  1  0.61902352  0.26871192  0.27277190  1
  C  C45  1  0.81895261  0.65973257  0.48314555  1
  Zr  Zr46  1  0.67297899  0.28627346  0.69378102  1
  C  C47  1  0.83127342  0.42749013  0.80609452  1
  Ta  Ta48  1  0.78938375  0.79357283  0.09811545  1
  C  C49  1  0.79132370  0.80468560  0.28482030  1
  Zr  Zr50  1  0.60506994  0.72778385  0.38778649  1
  C  C51  1  0.83834120  0.77773196  0.42654493  1
  Ta  Ta52  1  0.74619324  0.75426226  0.62454412  1
  C  C53  1  0.81869080  0.86302773  0.75779941  1
