# generated using pymatgen
data_Zr3Ta29
_symmetry_space_group_name_H-M   'P 1'
_cell_length_a   14.75719246
_cell_length_b   15.01892610
_cell_length_c   14.78830941
_cell_angle_alpha   90.10834873
_cell_angle_beta   89.70008388
_cell_angle_gamma   90.19215838
_symmetry_Int_Tables_number   1
_chemical_formula_structural   Zr3Ta29
_chemical_formula_sum   'Zr6 Ta58'
_cell_volume   3277.57014934
_cell_formula_units_Z   2
loop_
 _symmetry_equiv_pos_site_id
 _symmetry_equiv_pos_as_xyz
  1  'x, y, z'
loop_
 _atom_site_type_symbol
 _atom_site_label
 _atom_site_symmetry_multiplicity
 _atom_site_fract_x
 _atom_site_fract_y
 _atom_site_fract_z
 _atom_site_occupancy
  Ta  Ta0  1  -0.11339391  0.01987056  -0.07928503  1
  Ta  Ta1  1  -0.04239258  0.08258533  0.41418907  1
  Ta  Ta2  1  -0.09019181  -0.08908199  0.45740016  1
  Ta  Ta3  1  -0.08796848  -0.00616544  0.74097186  1
  Ta  Ta4  1  -0.08637334  0.20772049  -0.04299769  1
  Ta  Ta5  1  0.07632884  0.19512363  0.29366000  1
  Ta  Ta6  1  0.01193503  0.24438951  0.44699781  1
  Ta  Ta7  1  -0.02360168  0.15830169  0.79282700  1
  Ta  Ta8  1  0.07623565  0.47456354  -0.01080583  1
  Ta  Ta9  1  -0.04292280  0.54193935  0.20330258  1
  Ta  Ta10  1  -0.10354437  0.66131142  0.43432133  1
  Ta  Ta11  1  0.13126677  0.63510655  0.90141698  1
  Ta  Ta12  1  0.05982556  0.65024387  0.05431218  1
  Ta  Ta13  1  0.06986544  0.67749788  0.23885139  1
  Ta  Ta14  1  -0.09012897  0.77165448  0.55173992  1
  Ta  Ta15  1  -0.08351338  0.63158924  0.65634006  1
  Ta  Ta16  1  0.33497968  -0.07955410  0.03338046  1
  Ta  Ta17  1  0.33849680  0.04440867  0.26098654  1
  Ta  Ta18  1  0.31065054  0.07556028  0.43330685  1
  Ta  Ta19  1  0.26611063  0.09256418  0.77629428  1
  Ta  Ta20  1  0.23832277  0.37693917  -0.05652928  1
  Ta  Ta21  1  0.22575948  0.18850020  0.32871291  1
  Ta  Ta22  1  0.25632776  0.22590334  0.49579099  1
  Ta  Ta23  1  0.31343171  0.23277928  0.82694827  1
  Zr  Zr24  1  0.25798160  0.56337471  0.01532583  1
  Ta  Ta25  1  0.15353984  0.52608235  0.16994377  1
  Ta  Ta26  1  0.24869297  0.41193868  0.46380907  1
  Ta  Ta27  1  0.21247980  0.49165697  0.80439482  1
  Zr  Zr28  1  0.20711900  0.78892058  -0.02130871  1
  Ta  Ta29  1  0.24910844  0.71801182  0.14826409  1
  Ta  Ta30  1  0.28419659  0.79819307  0.44956144  1
  Ta  Ta31  1  0.30522184  0.64971528  0.85397549  1
  Ta  Ta32  1  0.48774394  0.04890907  0.04525972  1
  Zr  Zr33  1  0.47718510  -0.08131296  0.18298402  1
  Ta  Ta34  1  0.48054542  0.02093753  0.38428094  1
  Ta  Ta35  1  0.60734261  0.10986050  0.83673666  1
  Ta  Ta36  1  0.58568919  0.19540448  -0.01170321  1
  Ta  Ta37  1  0.50786067  0.13886552  0.20151155  1
  Ta  Ta38  1  0.42179994  0.20112586  0.37085097  1
  Ta  Ta39  1  0.44700084  0.17113900  0.89450417  1
  Ta  Ta40  1  0.42218583  0.52047785  -0.07492461  1
  Ta  Ta41  1  0.47191970  0.59173728  0.25412074  1
  Ta  Ta42  1  0.60864441  0.58771748  0.44479128  1
  Ta  Ta43  1  0.40769735  0.56727830  0.74809336  1
  Ta  Ta44  1  0.39236923  0.70253190  -0.00324394  1
  Ta  Ta45  1  0.58350298  0.84839070  0.34875067  1
  Ta  Ta46  1  0.54410371  0.78511066  0.48739551  1
  Ta  Ta47  1  0.52121728  0.66951163  0.78387299  1
  Zr  Zr48  1  0.70152579  0.00092551  -0.00247062  1
  Ta  Ta49  1  0.66111779  0.06022895  0.17757130  1
  Ta  Ta50  1  0.81134198  -0.08437790  0.59701969  1
  Zr  Zr51  1  0.72393546  -0.02122218  0.75528852  1
  Ta  Ta52  1  0.75594554  0.19333296  0.00072418  1
  Ta  Ta53  1  0.64156125  0.16130829  0.31036730  1
  Ta  Ta54  1  0.86262133  0.20893808  0.37473042  1
  Ta  Ta55  1  0.78031165  0.15881019  0.80981862  1
  Ta  Ta56  1  0.76482380  0.49080570  -0.01634482  1
  Ta  Ta57  1  0.82804333  0.53939288  0.29756401  1
  Ta  Ta58  1  0.77773930  0.51721062  0.52137416  1
  Ta  Ta59  1  0.76067917  0.61754774  0.68076119  1
  Ta  Ta60  1  0.82077880  0.87230963  -0.08907053  1
  Ta  Ta61  1  0.73606182  0.69578511  0.37972628  1
  Zr  Zr62  1  0.72340814  0.75915717  0.54109290  1
  Ta  Ta63  1  0.81945125  0.79051790  0.73246798  1
