# generated using pymatgen
data_Ta27C11N16
_symmetry_space_group_name_H-M   'P 1'
_cell_length_a   11.28892724
_cell_length_b   11.53203617
_cell_length_c   11.62561914
_cell_angle_alpha   88.92671223
_cell_angle_beta   90.55780245
_cell_angle_gamma   90.10446184
_symmetry_Int_Tables_number   1
_chemical_formula_structural   Ta27C11N16
_chemical_formula_sum   'Ta27 C11 N16'
_cell_volume   1513.13400898
_cell_formula_units_Z   1
loop_
 _symmetry_equiv_pos_site_id
 _symmetry_equiv_pos_as_xyz
  1  'x, y, z'
loop_
 _atom_site_type_symbol
 _atom_site_label
 _atom_site_symmetry_multiplicity
 _atom_site_fract_x
 _atom_site_fract_y
 _atom_site_fract_z
 _atom_site_occupancy
  Ta  Ta0  1  -0.08119147  0.12061644  0.01496719  1
  N  N1  1  0.16816450  0.19360370  0.28308338  1
  Ta  Ta2  1  -0.02090597  -0.04062830  0.41891026  1
  C  C3  1  0.10755666  0.15450769  0.59703025  1
  Ta  Ta4  1  0.05318081  -0.01470141  0.65355627  1
  C  C5  1  0.22405376  0.18107855  0.86058193  1
  Ta  Ta6  1  -0.08478018  0.38810476  -0.04339687  1
  N  N7  1  0.26971420  0.41854260  0.30463892  1
  Ta  Ta8  1  0.00702709  0.16869355  0.24772509  1
  N  N9  1  0.15039934  0.58862342  0.50486300  1
  Ta  Ta10  1  0.03222343  0.23678902  0.78174697  1
  C  C11  1  0.09874311  0.39468085  0.89057445  1
  Ta  Ta12  1  0.06553850  0.53288066  -0.23125963  1
  N  N13  1  0.17550197  0.70700867  0.29710326  1
  Ta  Ta14  1  0.05842574  0.70931005  0.40798263  1
  C  C15  1  0.10285571  0.84136926  0.53465683  1
  Ta  Ta16  1  -0.05088212  0.75290698  0.63133759  1
  N  N17  1  0.21332731  0.65103445  0.75533743  1
  Ta  Ta18  1  0.40844575  -0.02718921  -0.12131827  1
  C  C19  1  0.65174847  0.14776848  0.15723764  1
  Ta  Ta20  1  0.21215582  0.12174406  0.43387014  1
  N  N21  1  0.35702464  0.20254617  0.42702321  1
  Ta  Ta22  1  0.26808823  0.12036779  0.70030225  1
  C  C23  1  0.55459328  0.11275236  0.87999486  1
  Ta  Ta24  1  0.41318146  0.21950237  -0.07799428  1
  N  N25  1  0.50480317  0.33909850  0.23098316  1
  Ta  Ta26  1  0.35104541  0.28629701  0.27835038  1
  N  N27  1  0.39350733  0.62257917  0.46039877  1
  Ta  Ta28  1  0.24646974  0.35778402  0.78709591  1
  N  N29  1  0.52075310  0.64589511  0.85575958  1
  Ta  Ta30  1  0.37349451  0.72203821  -0.19407886  1
  N  N31  1  0.48694141  0.88677412  0.02702519  1
  Ta  Ta32  1  0.27139921  0.57545174  0.36584063  1
  N  N33  1  0.62886453  0.78514243  0.54390787  1
  Ta  Ta34  1  0.23654348  0.70386552  0.58960746  1
  C  C35  1  0.49021941  0.86642779  0.76240933  1
  Ta  Ta36  1  0.60475032  0.01597645  0.04058287  1
  C  C37  1  0.76125849  0.12595900  0.09830173  1
  Ta  Ta38  1  0.78294050  0.03252766  0.26411703  1
  N  N39  1  0.89085517  0.11708891  0.36572182  1
  Ta  Ta40  1  0.64610288  -0.01653900  0.78137535  1
  C  C41  1  0.85599482  0.21868719  0.87502235  1
  Ta  Ta42  1  0.68543407  0.24462084  -0.03518086  1
  N  N43  1  0.75042393  0.38008104  0.06328638  1
  Ta  Ta44  1  0.66833200  0.31881206  0.20081194  1
  N  N45  1  0.88241623  0.67401546  0.49700511  1
  Ta  Ta46  1  0.77847540  0.32461187  0.75610453  1
  C  C47  1  0.91142404  0.43068909  0.75675019  1
  Ta  Ta48  1  0.59038189  0.77953736  -0.05796212  1
  N  N49  1  0.84068534  0.87836698  0.31521423  1
  Ta  Ta50  1  0.77619679  0.81153635  0.46791694  1
  C  C51  1  0.88341824  0.92473226  0.57830021  1
  Ta  Ta52  1  0.61483660  0.73846449  0.69673726  1
  N  N53  1  0.71784194  0.82756541  0.82004108  1
