# generated using pymatgen
data_Zr27C23N4
_symmetry_space_group_name_H-M   'P 1'
_cell_length_a   10.99098625
_cell_length_b   10.98470340
_cell_length_c   10.79412897
_cell_angle_alpha   89.97723171
_cell_angle_beta   88.30238761
_cell_angle_gamma   89.88313966
_symmetry_Int_Tables_number   1
_chemical_formula_structural   Zr27C23N4
_chemical_formula_sum   'Zr27 C23 N4'
_cell_volume   1302.62982679
_cell_formula_units_Z   1
loop_
 _symmetry_equiv_pos_site_id
 _symmetry_equiv_pos_as_xyz
  1  'x, y, z'
loop_
 _atom_site_type_symbol
 _atom_site_label
 _atom_site_symmetry_multiplicity
 _atom_site_fract_x
 _atom_site_fract_y
 _atom_site_fract_z
 _atom_site_occupancy
  Zr  Zr0  1  0.07415870  0.14887571  0.04210866  1
  C  C1  1  0.22106152  0.09389944  0.17725665  1
  Zr  Zr2  1  0.08160821  -0.01746716  0.29664104  1
  C  C3  1  0.08514821  0.13919538  0.44495027  1
  Zr  Zr4  1  -0.07853691  0.06767986  0.55429488  1
  C  C5  1  0.23606969  0.12885758  0.90733555  1
  Zr  Zr6  1  -0.11795419  0.34899024  0.10428688  1
  C  C7  1  0.19214414  0.59310012  0.21652947  1
  Zr  Zr8  1  -0.05254704  0.27047293  0.36286332  1
  C  C9  1  0.07891781  0.70417412  0.46630171  1
  Zr  Zr10  1  -0.10485059  0.37244034  0.65281183  1
  C  C11  1  0.20586852  0.59744683  0.92530485  1
  Zr  Zr12  1  0.15932875  0.46279824  0.07094601  1
  C  C13  1  0.23616125  0.86670846  0.22372031  1
  Zr  Zr14  1  -0.00114642  0.56480809  0.32597954  1
  C  C15  1  0.05294582  0.82868597  0.45886474  1
  Zr  Zr16  1  -0.08294687  0.70314124  0.60797266  1
  C  C17  1  0.28165652  0.85960317  0.82141514  1
  Zr  Zr18  1  0.26520862  -0.05895807  0.01751358  1
  C  C19  1  0.49138921  0.16799783  0.17363042  1
  Zr  Zr20  1  0.39200623  -0.00491762  0.26624833  1
  C  C21  1  0.66997100  0.13745131  0.45501770  1
  Zr  Zr22  1  0.19331178  0.01442561  0.75589590  1
  C  C23  1  0.57229722  0.14090692  0.80956962  1
  Zr  Zr24  1  0.33742846  0.22680938  0.05811581  1
  N  N25  1  0.47630280  0.58776343  0.02295656  1
  Zr  Zr26  1  0.22448714  0.23521985  0.33065614  1
  C  C27  1  0.56358094  0.43227575  0.50939431  1
  Zr  Zr28  1  0.39544183  0.47439649  0.59491517  1
  C  C29  1  0.45504769  0.60917790  0.71892803  1
  Zr  Zr30  1  0.33151744  0.68086652  0.06711877  1
  C  C31  1  0.46098191  0.89627867  0.10355812  1
  Zr  Zr32  1  0.24949269  0.71686500  0.35103766  1
  N  N33  1  0.71043830  0.71780949  0.50869495  1
  Zr  Zr34  1  0.25836258  0.67975701  0.75863632  1
  C  C35  1  0.49776076  0.85405475  0.99306290  1
  Zr  Zr36  1  0.55804585  0.05344351  -0.00711556  1
  C  C37  1  0.76471150  0.29793179  0.24873496  1
  Zr  Zr38  1  0.66041422  0.13383395  0.25807280  1
  C  C39  1  0.71157305  0.06923384  0.54192980  1
  Zr  Zr40  1  0.71609567  0.00818965  0.73379292  1
  C  C41  1  0.84563430  0.16756663  0.73227678  1
  Zr  Zr42  1  0.73210245  0.25572538  -0.12160088  1
  C  C43  1  1.05221270  0.36163220  0.22182770  1
  Zr  Zr44  1  0.72823502  0.46512287  0.38005260  1
  C  C45  1  0.87262320  0.50142865  0.53302237  1
  Zr  Zr46  1  0.61792570  0.26996358  0.62997128  1
  C  C47  1  0.71826506  0.40478609  0.75337772  1
  Zr  Zr48  1  0.55459699  0.69360829  -0.12062094  1
  N  N49  1  0.82819375  0.62991369  0.28519721  1
  Zr  Zr50  1  0.78731982  0.79798308  0.36492171  1
  C  C51  1  0.94258723  0.88495996  0.48516160  1
  Zr  Zr52  1  0.66457608  0.57643555  0.64485251  1
  N  N53  1  0.73277372  0.68665050  0.78161160  1
