# generated using pymatgen
data_Zr13Ta14C23N4
_symmetry_space_group_name_H-M   'P 1'
_cell_length_a   11.06480088
_cell_length_b   11.09454303
_cell_length_c   10.95081833
_cell_angle_alpha   90.02647048
_cell_angle_beta   89.60498876
_cell_angle_gamma   89.59423055
_symmetry_Int_Tables_number   1
_chemical_formula_structural   Zr13Ta14C23N4
_chemical_formula_sum   'Zr13 Ta14 C23 N4'
_cell_volume   1344.24468178
_cell_formula_units_Z   1
loop_
 _symmetry_equiv_pos_site_id
 _symmetry_equiv_pos_as_xyz
  1  'x, y, z'
loop_
 _atom_site_type_symbol
 _atom_site_label
 _atom_site_symmetry_multiplicity
 _atom_site_fract_x
 _atom_site_fract_y
 _atom_site_fract_z
 _atom_site_occupancy
  Ta  Ta0  1  0.06630252  0.05434105  0.02913383  1
  C  C1  1  0.18833412  0.14588240  0.14485050  1
  Zr  Zr2  1  -0.07235945  -0.02611797  0.29804604  1
  C  C3  1  0.06450885  0.13479994  0.41015391  1
  Zr  Zr4  1  0.05386716  0.02997523  0.56847359  1
  C  C5  1  0.12110183  0.16131582  0.88151647  1
  Zr  Zr6  1  -0.10259179  0.34523088  0.05790235  1
  C  C7  1  0.09615136  0.38326831  0.12494707  1
  Ta  Ta8  1  0.04154554  0.22924307  0.24968060  1
  C  C9  1  0.15158243  0.61811913  0.41743844  1
  Zr  Zr10  1  0.02762400  0.26713562  0.74483189  1
  C  C11  1  0.28121076  0.64592569  0.95936086  1
  Ta  Ta12  1  0.15721818  0.56714489  0.07004378  1
  C  C13  1  0.09181409  0.73229021  0.15313637  1
  Zr  Zr14  1  -0.00872262  0.62081861  0.29072947  1
  C  C15  1  0.12480957  0.88948829  0.42179041  1
  Ta  Ta16  1  0.08060607  0.74800130  0.53053116  1
  C  C17  1  0.26330738  0.91461227  0.86559655  1
  Zr  Zr18  1  0.36534964  0.06514659  0.08992272  1
  C  C19  1  0.56007942  0.12396646  0.11353053  1
  Ta  Ta20  1  0.19101394  0.01603503  0.28892659  1
  C  C21  1  0.57552546  0.17385110  0.43623097  1
  Zr  Zr22  1  0.27947976  0.08960270  0.77623755  1
  C  C23  1  0.61369454  0.16713045  0.76622221  1
  Ta  Ta24  1  0.20348993  0.28331671  0.01074023  1
  N  N25  1  0.54726633  0.54627336  0.07432780  1
  Zr  Zr26  1  0.25777143  0.21128927  0.43918230  1
  C  C27  1  0.50350743  0.40150024  0.61639742  1
  Ta  Ta28  1  0.49730214  0.21082989  0.62700455  1
  C  C29  1  0.51779979  0.65448405  0.81372503  1
  Ta  Ta30  1  0.22661415  0.82515679  0.03945784  1
  C  C31  1  0.42748435  0.88287974  0.01417408  1
  Ta  Ta32  1  0.21759463  0.75819576  0.30104844  1
  N  N33  1  0.59036757  0.69676055  0.52007022  1
  Zr  Zr34  1  0.33566872  0.74109079  0.78383290  1
  C  C35  1  0.38468228  0.94638893  0.90497799  1
  Zr  Zr36  1  0.58031204  0.04303882  -0.08773291  1
  C  C37  1  0.85296971  0.15438102  0.19851692  1
  Ta  Ta38  1  0.65905834  0.17736713  0.25546248  1
  C  C39  1  0.68178512  0.18500252  0.51378462  1
  Zr  Zr40  1  0.73804235  0.02785718  0.64904086  1
  C  C41  1  0.91271230  0.10959801  0.68085955  1
  Ta  Ta42  1  0.83912268  0.13546106  -0.13034271  1
  C  C43  1  1.03457060  0.43777535  0.22347557  1
  Ta  Ta44  1  0.62225226  0.37136383  0.46381336  1
  C  C45  1  0.75081329  0.48412756  0.57284263  1
  Zr  Zr46  1  0.74222209  0.33100950  0.70089284  1
  C  C47  1  0.87185793  0.33334127  0.86249874  1
  Ta  Ta48  1  0.48000739  0.67551968  0.00195339  1
  N  N49  1  0.84739882  0.79781054  0.35562596  1
  Zr  Zr50  1  0.74421109  0.63894134  0.44624529  1
  C  C51  1  0.90401088  0.77725026  0.45338575  1
  Ta  Ta52  1  0.57299271  0.58120652  0.64680053  1
  N  N53  1  0.74465887  0.98357525  0.85870445  1
