# generated using pymatgen
data_Zr11Ta16C8N19
_symmetry_space_group_name_H-M   'P 1'
_cell_length_a   11.40259466
_cell_length_b   11.57723683
_cell_length_c   11.61550300
_cell_angle_alpha   91.24554948
_cell_angle_beta   90.50775846
_cell_angle_gamma   90.57113796
_symmetry_Int_Tables_number   1
_chemical_formula_structural   Zr11Ta16C8N19
_chemical_formula_sum   'Zr11 Ta16 C8 N19'
_cell_volume   1532.86712782
_cell_formula_units_Z   1
loop_
 _symmetry_equiv_pos_site_id
 _symmetry_equiv_pos_as_xyz
  1  'x, y, z'
loop_
 _atom_site_type_symbol
 _atom_site_label
 _atom_site_symmetry_multiplicity
 _atom_site_fract_x
 _atom_site_fract_y
 _atom_site_fract_z
 _atom_site_occupancy
  Ta  Ta0  1  -0.00550600  0.14950619  -0.13446405  1
  N  N1  1  0.11823890  0.29407547  0.35517139  1
  Zr  Zr2  1  0.02197142  -0.09407882  0.35642251  1
  C  C3  1  0.13115180  0.04711267  0.45069830  1
  Zr  Zr4  1  0.03509827  0.01890796  0.63319055  1
  C  C5  1  0.22272823  0.11800117  0.83980705  1
  Ta  Ta6  1  -0.06441460  0.36833476  -0.04931899  1
  N  N7  1  0.13442611  0.48450129  0.18497842  1
  Ta  Ta8  1  0.03250034  0.18764334  0.44354022  1
  N  N9  1  0.19668161  0.53893814  0.41189421  1
  Zr  Zr10  1  -0.07156324  0.34103571  0.67869077  1
  N  N11  1  0.06279452  0.32187403  0.82960089  1
  Ta  Ta12  1  -0.23335985  0.52466188  0.11685643  1
  N  N13  1  0.16202364  0.78402171  0.35088333  1
  Zr  Zr14  1  0.06040717  0.62410757  0.26928073  1
  C  C15  1  0.09750758  0.84608036  0.57689374  1
  Ta  Ta16  1  -0.06650456  0.76682119  0.56516619  1
  N  N17  1  0.31550757  0.85553148  0.83525979  1
  Zr  Zr18  1  0.27122543  -0.01369336  -0.03400633  1
  N  N19  1  0.43036309  0.07508930  -0.00191237  1
  Ta  Ta20  1  0.24728650  -0.08868838  0.46595457  1
  N  N21  1  0.62232043  0.18710896  0.59841061  1
  Zr  Zr22  1  0.31752361  0.00133728  0.70331722  1
  C  C23  1  0.50417155  0.03121052  0.76872647  1
  Ta  Ta24  1  0.42387264  0.17039333  -0.13590113  1
  N  N25  1  0.61538662  0.52958463  0.16398620  1
  Ta  Ta26  1  0.21612899  0.41812237  0.30259931  1
  N  N27  1  0.66986815  0.55582362  0.41501259  1
  Ta  Ta28  1  0.18410199  0.25376363  0.73301521  1
  N  N29  1  0.55728828  0.67520654  0.86635533  1
  Ta  Ta30  1  0.42311615  0.76492190  -0.06257044  1
  N  N31  1  0.52760834  0.84110623  0.04656710  1
  Ta  Ta32  1  0.17114722  0.68725855  0.49694514  1
  N  N33  1  0.33168531  0.76167296  0.52781747  1
  Zr  Zr34  1  0.39865670  0.75113013  0.68477154  1
  C  C35  1  0.52813942  0.91317496  0.72921864  1
  Zr  Zr36  1  0.59226395  -0.01355412  -0.05560903  1
  N  N37  1  0.92750773  0.20859396  0.02057187  1
  Ta  Ta38  1  0.75431495  -0.08036268  0.30629151  1
  N  N39  1  1.05650685  0.22250465  0.60621809  1
  Zr  Zr40  1  0.66814128  0.03567527  0.64897431  1
  C  C41  1  0.81910392  0.21489508  0.78038353  1
  Ta  Ta42  1  0.76089760  0.20369924  -0.04405316  1
  N  N43  1  0.88606084  0.58367511  0.22283997  1
  Ta  Ta44  1  0.63470569  0.45215351  0.30569697  1
  N  N45  1  0.97596465  0.65310981  0.44966639  1
  Zr  Zr46  1  0.63414015  0.29721766  0.72644264  1
  C  C47  1  0.79557796  0.34330752  0.83213608  1
  Ta  Ta48  1  0.66765852  0.74429169  0.03266677  1
  N  N49  1  0.71972586  0.79221312  0.20999164  1
  Zr  Zr50  1  0.79281933  0.67380768  0.35465014  1
  C  C51  1  0.84168240  0.85899124  0.44198585  1
  Ta  Ta52  1  0.65171629  0.77717399  0.77320701  1
  N  N53  1  0.73163270  0.84100802  0.90508087  1
