# generated using pymatgen
data_Zr9C8N
_symmetry_space_group_name_H-M   'P 1'
_cell_length_a   10.51553138
_cell_length_b   10.51541163
_cell_length_c   10.51528514
_cell_angle_alpha   91.29406601
_cell_angle_beta   88.70191859
_cell_angle_gamma   91.29348847
_symmetry_Int_Tables_number   1
_chemical_formula_structural   Zr9C8N
_chemical_formula_sum   'Zr27 C24 N3'
_cell_volume   1161.85111948
_cell_formula_units_Z   3
loop_
 _symmetry_equiv_pos_site_id
 _symmetry_equiv_pos_as_xyz
  1  'x, y, z'
loop_
 _atom_site_type_symbol
 _atom_site_label
 _atom_site_symmetry_multiplicity
 _atom_site_fract_x
 _atom_site_fract_y
 _atom_site_fract_z
 _atom_site_occupancy
  Zr  Zr0  1  -0.00949983  0.06704123  -0.07173233  1
  C  C1  1  0.21344740  0.11890575  0.33136599  1
  Zr  Zr2  1  0.04472595  -0.01001354  0.39520015  1
  C  C3  1  0.22826613  0.10885132  0.46139204  1
  Zr  Zr4  1  0.00966014  -0.09551184  0.67699322  1
  C  C5  1  0.17600704  0.15741854  0.84267438  1
  Zr  Zr6  1  0.01089403  0.32351349  0.09492235  1
  C  C7  1  0.07940046  0.55985036  0.20704800  1
  Zr  Zr8  1  -0.05022825  0.38400360  0.38168896  1
  C  C9  1  0.09252598  0.53111128  0.33174026  1
  Zr  Zr10  1  0.05293760  0.28052280  0.71956359  1
  C  C11  1  0.22432540  0.53861014  0.89522842  1
  Zr  Zr12  1  0.04641671  0.61844776  0.01666814  1
  C  C13  1  0.31824213  0.84384514  0.17008933  1
  Zr  Zr14  1  -0.10366013  0.67645954  0.32932283  1
  C  C15  1  0.08276437  0.79516948  0.48907825  1
  Zr  Zr16  1  -0.05066417  0.61830620  0.61562671  1
  C  C17  1  0.21436262  0.66858717  0.88035574  1
  Zr  Zr18  1  0.30594321  0.02726037  -0.02729092  1
  C  C19  1  0.50334622  0.01461930  0.15623002  1
  Zr  Zr20  1  0.37758920  -0.02266216  0.32713902  1
  C  C21  1  0.54032505  0.25381138  0.44013454  1
  Zr  Zr22  1  0.26592808  0.07133939  0.65714747  1
  C  C23  1  0.66477696  0.11978397  0.88153769  1
  Zr  Zr24  1  0.26204094  0.34288812  -0.06713737  1
  N  N25  1  0.55218663  0.55593488  0.23962896  1
  Zr  Zr26  1  0.34985538  0.28661633  0.38185511  1
  C  C27  1  0.52450935  0.50442551  0.61405518  1
  Zr  Zr28  1  0.42810930  0.32277277  0.67672139  1
  C  C29  1  0.53860061  0.51112891  0.74913903  1
  Zr  Zr30  1  0.35576371  0.67268843  0.04461753  1
  C  C31  1  0.43127123  0.90181415  0.09813715  1
  Zr  Zr32  1  0.20277715  0.72424985  0.31911356  1
  N  N33  1  0.57287605  0.78147011  0.44408662  1
  Zr  Zr34  1  0.34329899  0.60475990  0.71157521  1
  C  C35  1  0.48940726  0.82964005  0.98531816  1
  Zr  Zr36  1  0.66040477  -0.04475075  0.02265471  1
  C  C37  1  0.82175728  0.25171585  0.20634201  1
  Zr  Zr38  1  0.65228884  0.13080110  0.27497642  1
  C  C39  1  0.66485224  0.24093753  0.46916122  1
  Zr  Zr40  1  0.71507149  -0.01641936  0.71323509  1
  C  C41  1  0.79470560  0.10475261  0.89136560  1
  Zr  Zr42  1  0.72914815  0.28862431  0.01016543  1
  C  C43  1  0.82960325  0.38654909  0.19093860  1
  Zr  Zr44  1  0.66359922  0.43687961  0.32352264  1
  C  C45  1  0.81092531  0.52244170  0.47738028  1
  Zr  Zr46  1  0.71481140  0.38390408  0.61601638  1
  C  C47  1  0.80257539  0.66863343  0.75872283  1
  Zr  Zr48  1  0.60860041  0.68090939  -0.13065099  1
  N  N49  1  0.77728537  0.76081984  0.21839004  1
  Zr  Zr50  1  0.58803813  0.74519687  0.25482332  1
  C  C51  1  0.94752116  0.80816516  0.49481227  1
  Zr  Zr52  1  0.65670256  0.67005616  0.56303033  1
  C  C53  1  0.77358053  0.79312367  0.74587942  1
