# generated using pymatgen
data_Ta9C5N4
_symmetry_space_group_name_H-M   'P 1'
_cell_length_a   11.36075169
_cell_length_b   11.50866394
_cell_length_c   11.40069778
_cell_angle_alpha   90.41023644
_cell_angle_beta   89.36755020
_cell_angle_gamma   89.84063126
_symmetry_Int_Tables_number   1
_chemical_formula_structural   Ta9C5N4
_chemical_formula_sum   'Ta27 C15 N12'
_cell_volume   1490.47275238
_cell_formula_units_Z   3
loop_
 _symmetry_equiv_pos_site_id
 _symmetry_equiv_pos_as_xyz
  1  'x, y, z'
loop_
 _atom_site_type_symbol
 _atom_site_label
 _atom_site_symmetry_multiplicity
 _atom_site_fract_x
 _atom_site_fract_y
 _atom_site_fract_z
 _atom_site_occupancy
  Ta  Ta0  1  -0.09755490  0.15299751  0.07726434  1
  N  N1  1  0.05219512  0.23734358  0.04270953  1
  Ta  Ta2  1  -0.08415069  -0.05091614  0.40466583  1
  C  C3  1  0.17453326  0.18011442  0.59591856  1
  Ta  Ta4  1  0.11152297  -0.00525583  0.56479530  1
  C  C5  1  0.24383683  0.17739330  0.83921189  1
  Ta  Ta6  1  -0.08641851  0.33207791  -0.12170205  1
  C  C7  1  0.17563803  0.48359826  0.03857419  1
  Ta  Ta8  1  0.03084046  0.38606127  0.13426284  1
  N  N9  1  0.25834143  0.59091606  0.59977753  1
  Ta  Ta10  1  0.07887995  0.18762992  0.74574952  1
  C  C11  1  0.08936962  0.37998868  0.80024170  1
  Ta  Ta12  1  0.03324280  0.52823170  -0.08475452  1
  N  N13  1  0.12143807  0.71463214  0.15438618  1
  Ta  Ta14  1  0.04342883  0.73592555  0.30029671  1
  C  C15  1  0.09906704  0.86116818  0.43204495  1
  Ta  Ta16  1  -0.00716119  0.75434998  0.55588400  1
  N  N17  1  0.25202838  0.69342291  0.86793733  1
  Ta  Ta18  1  0.40625146  0.15855039  -0.07650221  1
  C  C19  1  0.62680159  0.16713637  0.13459836  1
  Ta  Ta20  1  0.30644757  0.16981500  0.47875183  1
  C  C21  1  0.43899874  0.15836119  0.61551048  1
  Ta  Ta22  1  0.30783005  0.05357488  0.71602292  1
  C  C23  1  0.57954260  0.20636665  0.84853880  1
  Ta  Ta24  1  0.18359454  0.31600253  -0.05040668  1
  N  N25  1  0.60293059  0.42174134  0.15995758  1
  Ta  Ta26  1  0.50693479  0.28801181  0.49225995  1
  C  C27  1  0.51292277  0.46802867  0.53267664  1
  Ta  Ta28  1  0.28008947  0.31555312  0.70129862  1
  N  N29  1  0.53093286  0.57821994  0.76658844  1
  Ta  Ta30  1  0.22026320  0.65523871  0.03320708  1
  N  N31  1  0.54208919  0.86189360  0.17132685  1
  Ta  Ta32  1  0.32843185  0.46988628  0.51249393  1
  N  N33  1  0.45912707  0.73208649  0.60964348  1
  Ta  Ta34  1  0.34918192  0.65674321  0.72691598  1
  C  C35  1  0.43472295  0.98340265  0.84282880  1
  Ta  Ta36  1  0.66772095  0.09675968  -0.03250472  1
  C  C37  1  0.74641130  0.21664870  0.17558721  1
  Ta  Ta38  1  0.72579785  0.04608374  0.25035372  1
  N  N39  1  0.81864753  0.08269971  0.38048117  1
  Ta  Ta40  1  0.55363524  0.06573690  0.72929355  1
  C  C41  1  0.80294255  0.20209287  0.92965473  1
  Ta  Ta42  1  0.71987669  0.35413888  0.04531688  1
  C  C43  1  0.89570180  0.45567435  0.04548112  1
  Ta  Ta44  1  0.59296594  0.29888951  0.25646837  1
  N  N45  1  0.96434960  0.63735529  0.44110937  1
  Ta  Ta46  1  0.52045142  0.32401993  0.72236561  1
  C  C47  1  0.81970333  0.49635518  0.95656950  1
  Ta  Ta48  1  0.69941148  0.54654998  -0.17483834  1
  N  N49  1  0.88385095  0.81107148  0.28084012  1
  Ta  Ta50  1  0.80540587  0.72313330  0.41345706  1
  C  C51  1  0.83228375  0.84927462  0.54340317  1
  Ta  Ta52  1  0.58045773  0.62410530  0.60973820  1
  N  N53  1  0.76421532  0.66911840  0.76424858  1
