# generated using pymatgen
data_Zr13Ta14(CN2)9
_symmetry_space_group_name_H-M   'P 1'
_cell_length_a   11.49654493
_cell_length_b   11.32697438
_cell_length_c   11.44167253
_cell_angle_alpha   91.56631721
_cell_angle_beta   89.94194080
_cell_angle_gamma   90.20169182
_symmetry_Int_Tables_number   1
_chemical_formula_structural   Zr13Ta14(CN2)9
_chemical_formula_sum   'Zr13 Ta14 C9 N18'
_cell_volume   1489.38027502
_cell_formula_units_Z   1
loop_
 _symmetry_equiv_pos_site_id
 _symmetry_equiv_pos_as_xyz
  1  'x, y, z'
loop_
 _atom_site_type_symbol
 _atom_site_label
 _atom_site_symmetry_multiplicity
 _atom_site_fract_x
 _atom_site_fract_y
 _atom_site_fract_z
 _atom_site_occupancy
  Ta  Ta0  1  -0.04942158  0.11569429  -0.09151407  1
  N  N1  1  0.26502905  0.13001762  0.24753622  1
  Zr  Zr2  1  -0.06421538  0.01692826  0.36877605  1
  C  C3  1  0.07545164  0.15276662  0.41485602  1
  Zr  Zr4  1  0.06052309  0.09423641  0.61057365  1
  C  C5  1  0.10490366  0.15473118  0.81941557  1
  Zr  Zr6  1  -0.05524820  0.41012132  0.02833243  1
  N  N7  1  0.22714936  0.35048592  0.34784037  1
  Ta  Ta8  1  0.13368011  0.23782649  0.27120489  1
  N  N9  1  0.17980047  0.56905666  0.52713807  1
  Zr  Zr10  1  -0.00015366  0.32912976  0.76175444  1
  C  C11  1  0.11058583  0.42932607  0.91565140  1
  Ta  Ta12  1  0.06416690  0.57374937  -0.15989744  1
  N  N13  1  0.07999514  0.92848993  0.28875291  1
  Zr  Zr14  1  0.00856353  0.75049948  0.34063504  1
  C  C15  1  0.20922913  0.97371810  0.54923907  1
  Ta  Ta16  1  0.09464687  0.82220846  0.56513725  1
  N  N17  1  0.28557629  0.75827179  0.77669002  1
  Zr  Zr18  1  0.34460423  0.07649499  -0.01011701  1
  N  N19  1  0.48940550  0.10801128  0.08147527  1
  Ta  Ta20  1  0.19819476  0.01333205  0.36873993  1
  N  N21  1  0.47511351  0.28318790  0.43051224  1
  Zr  Zr22  1  0.31114464  -0.06523767  0.69554278  1
  C  C23  1  0.40156070  0.08857493  0.79045620  1
  Ta  Ta24  1  0.15478826  0.26414421  -0.02216729  1
  N  N25  1  0.45653462  0.44768222  0.26967701  1
  Zr  Zr26  1  0.40456704  0.26497754  0.26732952  1
  N  N27  1  0.43174180  0.54402696  0.50216151  1
  Ta  Ta28  1  0.26391000  0.21243636  0.75783869  1
  N  N29  1  0.52913029  0.65698207  0.80680689  1
  Ta  Ta30  1  0.41587777  0.78976114  -0.12088414  1
  N  N31  1  0.55948076  0.82124603  0.00284936  1
  Ta  Ta32  1  0.27813898  0.50583661  0.42047609  1
  N  N33  1  0.47101877  0.83222544  0.61041943  1
  Zr  Zr34  1  0.32622935  0.66754538  0.62507565  1
  C  C35  1  0.45334506  0.98375912  0.84187114  1
  Zr  Zr36  1  0.59929457  0.00421816  -0.01914738  1
  N  N37  1  0.93085779  0.21309331  0.06747171  1
  Ta  Ta38  1  0.79243517  -0.20372798  0.46307968  1
  N  N39  1  0.93366145  0.22999548  0.61862517  1
  Zr  Zr40  1  0.58081991  -0.03117084  0.69047762  1
  C  C41  1  0.77225646  0.17766013  0.84750325  1
  Ta  Ta42  1  0.76773556  0.21498846  0.02875099  1
  N  N43  1  0.87164942  0.52975734  0.14304055  1
  Ta  Ta44  1  0.53170548  0.43754345  0.41427691  1
  N  N45  1  0.90718911  0.61387779  0.40653137  1
  Zr  Zr46  1  0.78460467  0.16358070  0.65651724  1
  C  C47  1  0.84177190  0.28715497  0.87371749  1
  Ta  Ta48  1  0.66100594  0.73738292  -0.10165673  1
  N  N49  1  0.81979414  0.79013017  0.29471717  1
  Zr  Zr50  1  0.78739712  0.59558641  0.27753106  1
  C  C51  1  0.93785552  0.89200041  0.52042634  1
  Ta  Ta52  1  0.59296564  0.72248939  0.65385977  1
  N  N53  1  0.69195179  0.83319550  0.76409265  1
