# generated using pymatgen
data_ZrC
_symmetry_space_group_name_H-M   'P 1'
_cell_length_a   8.83649853
_cell_length_b   8.83649282
_cell_length_c   8.83649676
_cell_angle_alpha   89.99859880
_cell_angle_beta   89.99915423
_cell_angle_gamma   89.99861789
_symmetry_Int_Tables_number   1
_chemical_formula_structural   ZrC
_chemical_formula_sum   'Zr27 C27'
_cell_volume   689.98597116
_cell_formula_units_Z   27
loop_
 _symmetry_equiv_pos_site_id
 _symmetry_equiv_pos_as_xyz
  1  'x, y, z'
loop_
 _atom_site_type_symbol
 _atom_site_label
 _atom_site_symmetry_multiplicity
 _atom_site_fract_x
 _atom_site_fract_y
 _atom_site_fract_z
 _atom_site_occupancy
  Zr  Zr0  1  0.00121695  0.00079769  0.00069011  1
  C  C1  1  0.16603017  0.16642231  0.16465065  1
  Zr  Zr2  1  0.00001700  0.00052272  0.33406713  1
  C  C3  1  0.16550297  0.16621913  0.50067652  1
  Zr  Zr4  1  0.00138007  0.00121608  0.66716405  1
  C  C5  1  0.16562524  0.16516977  0.83246632  1
  Zr  Zr6  1  0.00108443  0.33400893  0.00135051  1
  C  C7  1  0.16656633  0.49806213  0.16487582  1
  Zr  Zr8  1  0.00035274  0.33415828  0.33418591  1
  C  C9  1  0.16587187  0.49880497  0.50008894  1
  Zr  Zr10  1  0.00108454  0.33421713  0.66697556  1
  C  C11  1  0.16550726  0.49988827  0.83249532  1
  Zr  Zr12  1  0.00096166  0.66733554  0.00037390  1
  C  C13  1  0.16647916  0.83299928  0.16512090  1
  Zr  Zr14  1  -0.00006958  0.66774442  0.33457697  1
  C  C15  1  0.16584029  0.83244606  0.49986137  1
  Zr  Zr16  1  0.00100329  0.66735830  0.66753949  1
  C  C17  1  0.16568779  0.83250131  0.83281778  1
  Zr  Zr18  1  0.33374992  0.00080359  0.00103576  1
  C  C19  1  0.49879725  0.16596859  0.16590815  1
  Zr  Zr20  1  0.33469236  0.00028568  0.33378190  1
  C  C21  1  0.49914205  0.16593899  0.49983843  1
  Zr  Zr22  1  0.33401563  0.00090810  0.66728353  1
  C  C23  1  0.50053929  0.16541052  0.83186547  1
  Zr  Zr24  1  0.33364296  0.33441823  0.00177144  1
  C  C25  1  0.49825800  0.49871425  0.16614049  1
  Zr  Zr26  1  0.33435027  0.33453999  0.33380371  1
  C  C27  1  0.49863419  0.49907946  0.49915077  1
  Zr  Zr28  1  0.33392119  0.33396349  0.66690627  1
  C  C29  1  0.50055732  0.49944541  0.83241434  1
  Zr  Zr30  1  0.33390374  0.66768283  0.00101569  1
  C  C31  1  0.49843079  0.83264699  0.16678275  1
  Zr  Zr32  1  0.33482366  0.66774133  0.33413064  1
  C  C33  1  0.49875623  0.83258940  0.49814954  1
  Zr  Zr34  1  0.33383855  0.66731221  0.66727426  1
  C  C35  1  0.49978682  0.83237131  0.83263622  1
  Zr  Zr36  1  0.66746130  0.00109343  0.00040301  1
  C  C37  1  0.83291478  0.16601290  0.16622068  1
  Zr  Zr38  1  0.66767336  0.00032048  0.33421959  1
  C  C39  1  0.83295334  0.16577847  0.49880760  1
  Zr  Zr40  1  0.66723066  0.00145933  0.66801418  1
  C  C41  1  0.83151533  0.16561778  0.83263153  1
  Zr  Zr42  1  0.66741245  0.33421022  0.00035905  1
  C  C43  1  0.83284219  0.49885960  0.16616738  1
  Zr  Zr44  1  0.66755668  0.33407264  0.33402065  1
  C  C45  1  0.83321989  0.49931537  0.49878845  1
  Zr  Zr46  1  0.66714924  0.33409404  0.66781769  1
  C  C47  1  0.83167664  0.49996097  0.83263333  1
  Zr  Zr48  1  0.66757187  0.66744691  -0.00007647  1
  C  C49  1  0.83263574  0.83280804  0.16716583  1
  Zr  Zr50  1  0.66770926  0.66789167  0.33429425  1
  C  C51  1  0.83295099  0.83227103  0.49751826  1
  Zr  Zr52  1  0.66749167  0.66731831  0.66811047  1
  C  C53  1  0.83205226  0.83177615  0.83303795  1
