# generated using pymatgen
data_Ta27C16N11
_symmetry_space_group_name_H-M   'P 1'
_cell_length_a   11.04576890
_cell_length_b   11.47977666
_cell_length_c   11.21755176
_cell_angle_alpha   89.79553454
_cell_angle_beta   89.28115496
_cell_angle_gamma   89.82739438
_symmetry_Int_Tables_number   1
_chemical_formula_structural   Ta27C16N11
_chemical_formula_sum   'Ta27 C16 N11'
_cell_volume   1422.29149685
_cell_formula_units_Z   1
loop_
 _symmetry_equiv_pos_site_id
 _symmetry_equiv_pos_as_xyz
  1  'x, y, z'
loop_
 _atom_site_type_symbol
 _atom_site_label
 _atom_site_symmetry_multiplicity
 _atom_site_fract_x
 _atom_site_fract_y
 _atom_site_fract_z
 _atom_site_occupancy
  Ta  Ta0  1  -0.08364939  0.13801029  0.06013286  1
  N  N1  1  0.04676615  0.27175396  0.08336123  1
  Ta  Ta2  1  -0.06064491  -0.06601824  0.35283696  1
  C  C3  1  0.22381770  0.07038506  0.51675264  1
  Ta  Ta4  1  0.04979278  0.03655764  0.56338596  1
  C  C5  1  0.20455168  0.18414211  0.79076393  1
  Ta  Ta6  1  -0.04138467  0.36856763  -0.06866114  1
  C  C7  1  0.16639179  0.50744819  0.01302071  1
  Ta  Ta8  1  -0.06962714  0.33340286  0.21508309  1
  N  N9  1  0.13214304  0.61542175  0.49648018  1
  Ta  Ta10  1  0.00562249  0.16014897  0.78987186  1
  C  C11  1  0.09582363  0.48410708  0.90386303  1
  Ta  Ta12  1  -0.00790373  0.57294389  0.06050087  1
  N  N13  1  0.19926876  0.71740972  0.29345167  1
  Ta  Ta14  1  0.03733420  0.69992521  0.35030136  1
  C  C15  1  0.08719974  0.86765681  0.46783041  1
  Ta  Ta16  1  0.11476893  0.81169618  0.65450071  1
  N  N17  1  0.14592111  0.70385942  0.79154422  1
  Ta  Ta18  1  0.40829278  0.22438917  -0.18699351  1
  C  C19  1  0.57768645  0.18389551  0.06387520  1
  Ta  Ta20  1  0.40231884  0.08102125  0.47676686  1
  C  C21  1  0.41984752  0.18801134  0.62047121  1
  Ta  Ta22  1  0.29417704  0.01987447  0.71645263  1
  C  C23  1  0.59474812  0.24234405  0.77446898  1
  Ta  Ta24  1  0.17955862  0.22160059  -0.02885587  1
  N  N25  1  0.59485730  0.41963042  0.27234530  1
  Ta  Ta26  1  0.55438659  0.27674355  0.50970081  1
  C  C27  1  0.41635751  0.55858415  0.49423033  1
  Ta  Ta28  1  0.22687477  0.23605830  0.61386425  1
  N  N29  1  0.55933443  0.58487428  0.74885546  1
  Ta  Ta30  1  0.23616275  0.58590287  -0.15240538  1
  N  N31  1  0.50703677  0.80787406  0.17491020  1
  Ta  Ta32  1  0.27487289  0.67945887  0.44302735  1
  N  N33  1  0.52840598  0.78295636  0.62006151  1
  Ta  Ta34  1  0.43271892  0.65075633  0.65683923  1
  C  C35  1  0.46458634  1.03491263  0.82852594  1
  Ta  Ta36  1  0.62901306  0.10085421  -0.08883765  1
  C  C37  1  0.78481902  0.21529311  0.19781891  1
  Ta  Ta38  1  0.76851684  0.17220500  0.38790852  1
  C  C39  1  0.92072308  0.11119306  0.44969147  1
  Ta  Ta40  1  0.57675231  0.07533318  0.66166640  1
  C  C41  1  0.83958969  0.20290100  0.90322751  1
  Ta  Ta42  1  0.72505443  0.30382758  0.02566971  1
  C  C43  1  0.85188580  0.44827664  0.09735009  1
  Ta  Ta44  1  0.57985861  0.25573250  0.23982010  1
  N  N45  1  0.69159337  0.58332800  0.49831401  1
  Ta  Ta46  1  0.76770611  0.27693801  0.74247195  1
  C  C47  1  0.80490108  0.49608677  0.99104348  1
  Ta  Ta48  1  0.71519722  0.51922760  -0.17414987  1
  N  N49  1  0.92291049  0.80017932  0.25727486  1
  Ta  Ta50  1  0.57428242  0.50687397  0.40852929  1
  C  C51  1  0.96740050  0.82717560  0.51405334  1
  Ta  Ta52  1  0.68002986  0.69126850  0.63426746  1
  N  N53  1  0.78135038  0.65699919  0.77271938  1
