# generated using pymatgen
data_Ta9C2N7
_symmetry_space_group_name_H-M   'P 1'
_cell_length_a   11.54257539
_cell_length_b   11.70482446
_cell_length_c   11.66336023
_cell_angle_alpha   89.97433538
_cell_angle_beta   90.42099780
_cell_angle_gamma   90.61951595
_symmetry_Int_Tables_number   1
_chemical_formula_structural   Ta9C2N7
_chemical_formula_sum   'Ta27 C6 N21'
_cell_volume   1575.62975323
_cell_formula_units_Z   3
loop_
 _symmetry_equiv_pos_site_id
 _symmetry_equiv_pos_as_xyz
  1  'x, y, z'
loop_
 _atom_site_type_symbol
 _atom_site_label
 _atom_site_symmetry_multiplicity
 _atom_site_fract_x
 _atom_site_fract_y
 _atom_site_fract_z
 _atom_site_occupancy
  Ta  Ta0  1  -0.09553195  0.11580965  -0.05322094  1
  N  N1  1  0.16970508  0.12601459  0.29233085  1
  Ta  Ta2  1  0.01914400  0.08897717  0.38373306  1
  C  C3  1  0.11844751  0.00892955  0.51705340  1
  Ta  Ta4  1  -0.01602183  -0.00461933  0.64308831  1
  N  N5  1  0.03799828  0.19424223  0.89882180  1
  Ta  Ta6  1  0.03067541  0.32397424  0.03277192  1
  N  N7  1  0.14783562  0.38907662  0.13149117  1
  Ta  Ta8  1  0.11283489  0.28865162  0.27755343  1
  N  N9  1  0.25791224  0.36616029  0.34452441  1
  Ta  Ta10  1  -0.04500161  0.30900150  0.78199566  1
  N  N11  1  0.04429044  0.42367712  0.87067870  1
  Ta  Ta12  1  -0.07682689  0.53241084  -0.09636798  1
  N  N13  1  0.16367974  0.79318810  0.35775306  1
  Ta  Ta14  1  0.02493919  0.84984105  0.44382579  1
  C  C15  1  0.09997764  0.78568225  0.62417573  1
  Ta  Ta16  1  -0.06927010  0.73010420  0.67764386  1
  N  N17  1  0.32824744  0.85488776  0.77433643  1
  Ta  Ta18  1  0.45807736  -0.04150576  -0.11528165  1
  N  N19  1  0.44182934  0.26450029  0.22077655  1
  Ta  Ta20  1  0.23783836  -0.04283829  0.38573685  1
  N  N21  1  0.38342556  0.22024848  0.48785629  1
  Ta  Ta22  1  0.23322158  -0.08728736  0.64320586  1
  N  N23  1  0.56366361  0.07311011  0.94062866  1
  Ta  Ta24  1  0.31653085  0.38143489  0.16948162  1
  N  N25  1  0.42676323  0.50265348  0.19798302  1
  Ta  Ta26  1  0.33851029  0.17548048  0.32989516  1
  N  N27  1  0.50791587  0.43090863  0.42844294  1
  Ta  Ta28  1  0.35867641  0.37536766  0.47733623  1
  N  N29  1  0.52055985  0.66743254  0.76451695  1
  Ta  Ta30  1  0.39437137  0.71793815  -0.12869956  1
  N  N31  1  0.50475110  0.81228079  -0.02889677  1
  Ta  Ta32  1  0.23298517  0.72860091  0.50003933  1
  N  N33  1  0.34995069  0.86201765  0.52623214  1
  Ta  Ta34  1  0.47008520  0.80316890  0.66254307  1
  C  C35  1  0.57694558  0.92621114  0.74523200  1
  Ta  Ta36  1  0.67316365  0.06810428  -0.17964584  1
  N  N37  1  0.87470247  0.21721110  0.07223893  1
  Ta  Ta38  1  0.79482284  -0.01487510  0.44243844  1
  N  N39  1  0.86350343  0.13233769  0.42737316  1
  Ta  Ta40  1  0.73058828  -0.12449686  0.66795711  1
  C  C41  1  0.79805103  0.20438293  0.82977110  1
  Ta  Ta42  1  0.77524782  0.33017788  -0.02260225  1
  N  N43  1  0.88303828  0.44853042  0.04119312  1
  Ta  Ta44  1  0.53227305  0.40193533  0.27309311  1
  N  N45  1  0.83490563  0.60652483  0.57096869  1
  Ta  Ta46  1  0.69206693  0.31397376  0.73227211  1
  C  C47  1  0.79941077  0.43328615  0.81585170  1
  Ta  Ta48  1  0.63809504  0.77592618  -0.14271695  1
  N  N49  1  0.85068396  0.85821541  0.34546027  1
  Ta  Ta50  1  0.78509850  0.73454854  0.46470401  1
  C  C51  1  0.87857699  0.86845012  0.56585466  1
  Ta  Ta52  1  0.73139919  0.57924177  0.70363698  1
  N  N53  1  0.79523558  0.72079346  0.78293428  1
