# generated using pymatgen
data_Ta27C23N4
_symmetry_space_group_name_H-M   'P 1'
_cell_length_a   11.19950352
_cell_length_b   11.17964085
_cell_length_c   10.90214849
_cell_angle_alpha   89.81469393
_cell_angle_beta   88.73284358
_cell_angle_gamma   90.30841139
_symmetry_Int_Tables_number   1
_chemical_formula_structural   Ta27C23N4
_chemical_formula_sum   'Ta27 C23 N4'
_cell_volume   1364.65779665
_cell_formula_units_Z   1
loop_
 _symmetry_equiv_pos_site_id
 _symmetry_equiv_pos_as_xyz
  1  'x, y, z'
loop_
 _atom_site_type_symbol
 _atom_site_label
 _atom_site_symmetry_multiplicity
 _atom_site_fract_x
 _atom_site_fract_y
 _atom_site_fract_z
 _atom_site_occupancy
  Ta  Ta0  1  0.14686168  0.20273957  0.04883066  1
  C  C1  1  0.25326553  0.09621083  0.15980639  1
  Ta  Ta2  1  0.13163067  -0.00799864  0.28179958  1
  C  C3  1  0.19123524  0.10860259  0.44306708  1
  Ta  Ta4  1  0.10932223  -0.00968191  0.56123835  1
  C  C5  1  0.19715127  0.10203519  0.88054417  1
  Ta  Ta6  1  -0.05477894  0.34251777  -0.03286403  1
  C  C7  1  0.13701814  0.64197664  0.17044600  1
  Ta  Ta8  1  -0.05127438  0.32631288  0.23407393  1
  C  C9  1  0.12982100  0.58759578  0.41162150  1
  Ta  Ta10  1  -0.12591104  0.39360105  0.71209577  1
  C  C11  1  0.20653281  0.55205055  0.90582740  1
  Ta  Ta12  1  0.13624879  0.47923676  0.07287211  1
  C  C13  1  0.24221102  0.86265950  0.17645835  1
  Ta  Ta14  1  -0.02413980  0.59388788  0.27037268  1
  C  C15  1  0.12183640  0.85882314  0.43692584  1
  Ta  Ta16  1  0.06656282  0.70078618  0.54003389  1
  C  C17  1  0.25727391  0.82143101  0.88239317  1
  Ta  Ta18  1  0.26930683  -0.03163041  0.01256953  1
  C  C19  1  0.46498147  0.17837469  0.22684469  1
  Ta  Ta20  1  0.40126764  -0.02083264  0.22685514  1
  C  C21  1  0.59516355  0.15949909  0.50253850  1
  Ta  Ta22  1  0.25874211  -0.02976577  0.75220595  1
  C  C23  1  0.54608753  0.19320007  0.82225883  1
  Ta  Ta24  1  0.35912486  0.20821362  -0.13473854  1
  N  N25  1  0.42501690  0.60779134  0.03576555  1
  Ta  Ta26  1  0.28987897  0.20203754  0.30538418  1
  C  C27  1  0.68065872  0.44827501  0.53735088  1
  Ta  Ta28  1  0.34213201  0.46117455  0.81960936  1
  C  C29  1  0.50526200  0.52961817  0.75690890  1
  Ta  Ta30  1  0.27048027  0.70233388  0.04455925  1
  C  C31  1  0.47538160  0.96135745  0.02435898  1
  Ta  Ta32  1  0.22261351  0.74089728  0.31821282  1
  N  N33  1  0.66793885  0.70367324  0.56658488  1
  Ta  Ta34  1  0.22976863  0.68441374  0.76458435  1
  C  C35  1  0.44710628  0.85131525  0.99251747  1
  Ta  Ta36  1  0.52951359  0.13270257  0.03615120  1
  C  C37  1  0.77759925  0.26382258  0.26994879  1
  Ta  Ta38  1  0.63435233  0.14945084  0.30148578  1
  C  C39  1  0.70662019  0.09504681  0.48455289  1
  Ta  Ta40  1  0.66249993  0.11061570  0.68418740  1
  C  C41  1  0.78158161  0.23977525  0.69733748  1
  Ta  Ta42  1  0.71977210  0.26065373  -0.10191500  1
  C  C43  1  0.93806987  0.47487959  0.11390663  1
  Ta  Ta44  1  0.77800750  0.28774109  0.47958494  1
  C  C45  1  0.79974684  0.47979336  0.56715669  1
  Ta  Ta46  1  0.59377115  0.36632072  0.70305250  1
  C  C47  1  0.74476262  0.43934265  0.84323348  1
  Ta  Ta48  1  0.48230018  0.69052642  -0.11830783  1
  N  N49  1  0.84327007  0.69663996  0.30016969  1
  Ta  Ta50  1  0.74375722  0.62254280  0.44366143  1
  C  C51  1  0.91134610  0.66707638  0.47989224  1
  Ta  Ta52  1  0.68075396  0.60617418  0.72633525  1
  N  N53  1  0.65049645  0.71416249  0.85965292  1
