# generated using pymatgen
data_Zr2TaN3
_symmetry_space_group_name_H-M   'P 1'
_cell_length_a   11.45708766
_cell_length_b   11.28308902
_cell_length_c   11.46162994
_cell_angle_alpha   89.53021065
_cell_angle_beta   88.67703417
_cell_angle_gamma   89.93324239
_symmetry_Int_Tables_number   1
_chemical_formula_structural   Zr2TaN3
_chemical_formula_sum   'Zr18 Ta9 N27'
_cell_volume   1481.21480455
_cell_formula_units_Z   9
loop_
 _symmetry_equiv_pos_site_id
 _symmetry_equiv_pos_as_xyz
  1  'x, y, z'
loop_
 _atom_site_type_symbol
 _atom_site_label
 _atom_site_symmetry_multiplicity
 _atom_site_fract_x
 _atom_site_fract_y
 _atom_site_fract_z
 _atom_site_occupancy
  Ta  Ta0  1  -0.11202383  0.09657420  -0.08595136  1
  N  N1  1  0.33973388  0.27398346  0.21188971  1
  Zr  Zr2  1  0.06402364  -0.05213698  0.40344320  1
  N  N3  1  0.17656947  0.09927375  0.33679863  1
  Zr  Zr4  1  -0.02743836  0.05173127  0.65483181  1
  N  N5  1  0.01853001  0.20699428  0.93259087  1
  Zr  Zr6  1  -0.04735699  0.31839909  0.05834796  1
  N  N7  1  0.12421282  0.37665332  0.10421597  1
  Ta  Ta8  1  0.15336374  0.25779150  0.24185400  1
  N  N9  1  0.08735263  0.63385961  0.59512625  1
  Zr  Zr10  1  -0.02646259  0.32801823  0.79687009  1
  N  N11  1  0.20265241  0.55909058  0.84194038  1
  Ta  Ta12  1  0.10802644  0.52167054  -0.01986656  1
  N  N13  1  0.30220752  0.73754241  0.12417836  1
  Zr  Zr14  1  -0.01489456  0.64502053  0.41920220  1
  N  N15  1  0.04706677  0.90268511  0.57487109  1
  Zr  Zr16  1  -0.01668504  0.75810870  0.67335915  1
  N  N17  1  0.30697558  0.75468657  0.72124495  1
  Zr  Zr18  1  0.39066275  -0.08974201  0.09214747  1
  N  N19  1  0.51680431  0.02445207  0.17665341  1
  Zr  Zr20  1  0.36009687  0.11375704  0.30921882  1
  N  N21  1  0.40480442  0.24418057  0.43587312  1
  Zr  Zr22  1  0.37205757  -0.08610337  0.74532485  1
  N  N23  1  0.63249658  0.10166858  0.80085016  1
  Ta  Ta24  1  0.30152051  0.41311247  0.11292389  1
  N  N25  1  0.38480871  0.51638626  0.23718619  1
  Zr  Zr26  1  0.25747840  0.41308702  0.40793794  1
  N  N27  1  0.48471880  0.47192276  0.44060120  1
  Ta  Ta28  1  0.47094282  0.34742105  0.54743532  1
  N  N29  1  0.44494892  0.63031053  0.94932023  1
  Zr  Zr30  1  0.29426715  0.71253755  -0.08337381  1
  N  N31  1  0.54807024  0.79405474  0.11808593  1
  Ta  Ta32  1  0.22942770  0.61492372  0.22418873  1
  N  N33  1  0.65941442  0.73521044  0.37905247  1
  Zr  Zr34  1  0.24298790  0.59229463  0.66463043  1
  N  N35  1  0.36257774  0.90671129  0.91471031  1
  Zr  Zr36  1  0.66970370  -0.06547942  0.06251518  1
  N  N37  1  0.76098854  0.09247770  0.03331837  1
  Zr  Zr38  1  0.57350678  -0.11566277  0.29690328  1
  N  N39  1  0.79910610  0.06741689  0.60583027  1
  Zr  Zr40  1  0.72166238  -0.04597111  0.73197043  1
  N  N41  1  0.80855595  0.26334873  0.84248642  1
  Zr  Zr42  1  0.65533799  0.20762402  -0.05814111  1
  N  N43  1  0.86452839  0.59349723  0.31322922  1
  Ta  Ta44  1  0.47323425  0.37185840  0.29810897  1
  N  N45  1  0.85366660  0.72161183  0.55811408  1
  Zr  Zr46  1  0.72054984  0.21672328  0.67606203  1
  N  N47  1  0.97025840  0.45225673  0.92524418  1
  Ta  Ta48  1  0.46633822  0.64354564  0.10888941  1
  N  N49  1  0.74472218  0.88106655  0.21544920  1
  Zr  Zr50  1  0.74638878  0.68389904  0.22800336  1
  N  N51  1  0.94071875  0.82300145  0.35861234  1
  Ta  Ta52  1  0.78876302  0.82319212  0.44785170  1
  N  N53  1  0.89803077  0.95946216  0.79783931  1
