# generated using pymatgen
data_Zr4Ta23C20N7
_symmetry_space_group_name_H-M   'P 1'
_cell_length_a   11.13304251
_cell_length_b   11.32350215
_cell_length_c   11.03849435
_cell_angle_alpha   92.02124392
_cell_angle_beta   89.79507175
_cell_angle_gamma   90.47011432
_symmetry_Int_Tables_number   1
_chemical_formula_structural   Zr4Ta23C20N7
_chemical_formula_sum   'Zr4 Ta23 C20 N7'
_cell_volume   1390.64798490
_cell_formula_units_Z   1
loop_
 _symmetry_equiv_pos_site_id
 _symmetry_equiv_pos_as_xyz
  1  'x, y, z'
loop_
 _atom_site_type_symbol
 _atom_site_label
 _atom_site_symmetry_multiplicity
 _atom_site_fract_x
 _atom_site_fract_y
 _atom_site_fract_z
 _atom_site_occupancy
  Ta  Ta0  1  0.08641183  0.05708501  -0.09640071  1
  N  N1  1  0.19690543  0.12004223  0.02901681  1
  Ta  Ta2  1  0.15791374  -0.11405269  0.43876738  1
  C  C3  1  0.08105810  0.04859894  0.44951343  1
  Ta  Ta4  1  0.05761561  0.03598202  0.63831899  1
  C  C5  1  0.18638224  0.15039363  0.75379571  1
  Ta  Ta6  1  0.00482233  0.33855595  -0.01299795  1
  C  C7  1  0.15235418  0.65244584  0.07114300  1
  Ta  Ta8  1  -0.11144956  0.36298572  0.32759487  1
  N  N9  1  0.11199439  0.64076867  0.73089668  1
  Ta  Ta10  1  -0.10538970  0.21575028  0.76925031  1
  C  C11  1  0.17679942  0.39631906  0.91486990  1
  Ta  Ta12  1  0.14428680  0.57191957  -0.11321938  1
  C  C13  1  0.18327272  0.70073450  0.17791679  1
  Ta  Ta14  1  -0.03807405  0.70712810  0.25338403  1
  C  C15  1  0.17846772  0.88489154  0.63183621  1
  Ta  Ta16  1  0.02067127  0.76448714  0.63529831  1
  C  C17  1  0.21038814  0.89233222  0.89786631  1
  Ta  Ta18  1  0.34551554  -0.00453032  0.00337881  1
  C  C19  1  0.54050680  0.14605572  0.25513220  1
  Ta  Ta20  1  0.42186569  -0.00071047  0.26258816  1
  C  C21  1  0.53124978  0.15698783  0.57309283  1
  Ta  Ta22  1  0.31121074  -0.00034794  0.72991798  1
  C  C23  1  0.43408560  0.13438497  0.86397356  1
  Ta  Ta24  1  0.26870982  0.23321479  -0.08052176  1
  N  N25  1  0.59084348  0.60928736  0.16741287  1
  Ta  Ta26  1  0.44639482  0.23018040  0.41968008  1
  C  C27  1  0.54193348  0.39336560  0.42752487  1
  Ta  Ta28  1  0.37811469  0.22491914  0.67757801  1
  N  N29  1  0.31649752  0.61884827  0.85594896  1
  Ta  Ta30  1  0.32890268  0.73909927  -0.00986498  1
  C  C31  1  0.44190694  0.85367907  0.11813365  1
  Ta  Ta32  1  0.34955679  0.75487291  0.26148987  1
  N  N33  1  0.32476526  0.88171066  0.37858355  1
  Zr  Zr34  1  0.28049865  0.72948958  0.70414933  1
  C  C35  1  0.33302914  0.86533469  0.85376488  1
  Ta  Ta36  1  0.52843020  0.16209881  0.05420093  1
  C  C37  1  0.81751974  0.32473905  0.15442704  1
  Ta  Ta38  1  0.63860220  0.07842187  0.41670716  1
  C  C39  1  0.77248452  0.20280552  0.39020826  1
  Zr  Zr40  1  0.60318512  0.10985310  0.76027440  1
  C  C41  1  0.92611449  0.15182450  0.94967110  1
  Ta  Ta42  1  0.76383478  0.25659381  -0.00785714  1
  C  C43  1  0.92315778  0.53875500  0.28049182  1
  Ta  Ta44  1  0.64774823  0.30233888  0.27173396  1
  C  C45  1  0.76089092  0.45361833  0.45648992  1
  Zr  Zr46  1  0.70015941  0.29203014  0.56118887  1
  C  C47  1  0.86145032  0.38021109  0.86266043  1
  Ta  Ta48  1  0.61168338  0.76791023  0.15918251  1
  N  N49  1  0.79025847  0.75282575  0.23286593  1
  Zr  Zr50  1  0.72082337  0.58374426  0.30187303  1
  C  C51  1  1.00588162  0.76489828  0.42751400  1
  Ta  Ta52  1  0.61294972  0.51442006  0.53882934  1
  N  N53  1  0.93480768  0.87070209  0.73072486  1
