# generated using pymatgen
data_Zr6Ta21C23N4
_symmetry_space_group_name_H-M   'P 1'
_cell_length_a   11.06225025
_cell_length_b   10.96071846
_cell_length_c   10.81536138
_cell_angle_alpha   89.78752659
_cell_angle_beta   89.29880178
_cell_angle_gamma   91.30099951
_symmetry_Int_Tables_number   1
_chemical_formula_structural   Zr6Ta21C23N4
_chemical_formula_sum   'Zr6 Ta21 C23 N4'
_cell_volume   1310.91819223
_cell_formula_units_Z   1
loop_
 _symmetry_equiv_pos_site_id
 _symmetry_equiv_pos_as_xyz
  1  'x, y, z'
loop_
 _atom_site_type_symbol
 _atom_site_label
 _atom_site_symmetry_multiplicity
 _atom_site_fract_x
 _atom_site_fract_y
 _atom_site_fract_z
 _atom_site_occupancy
  Ta  Ta0  1  0.10552710  0.13628490  0.05111485  1
  C  C1  1  0.23063656  0.20814578  0.16946719  1
  Zr  Zr2  1  0.08501165  -0.04990848  0.29985733  1
  C  C3  1  0.25051859  0.00108901  0.41268925  1
  Ta  Ta4  1  0.18501014  -0.07694594  0.58339655  1
  C  C5  1  0.21111031  0.10989807  0.89903554  1
  Ta  Ta6  1  -0.06440319  0.35892289  0.04278712  1
  C  C7  1  0.07740797  0.48011343  0.10862353  1
  Ta  Ta8  1  -0.13226913  0.41455353  0.36435341  1
  C  C9  1  0.19324591  0.65822466  0.39034677  1
  Ta  Ta10  1  -0.15529411  0.35900754  0.62800692  1
  C  C11  1  0.27358236  0.60509145  0.94368335  1
  Ta  Ta12  1  0.09906287  0.56429960  -0.05180229  1
  C  C13  1  0.23426968  0.86018612  0.17457735  1
  Zr  Zr14  1  0.06308927  0.64815026  0.23275403  1
  C  C15  1  0.01094205  0.88435092  0.49603577  1
  Ta  Ta16  1  0.07846735  0.70171237  0.52803439  1
  C  C17  1  0.29986349  0.86926591  0.75417749  1
  Ta  Ta18  1  0.27545911  -0.06623281  -0.00684359  1
  C  C19  1  0.44075377  0.04284708  0.07799722  1
  Ta  Ta20  1  0.32933219  0.05568046  0.23067867  1
  C  C21  1  0.50374895  0.19986922  0.52822025  1
  Ta  Ta22  1  0.32806119  0.06066790  0.75807437  1
  C  C23  1  0.52478292  0.20679392  0.85620247  1
  Ta  Ta24  1  0.36254808  0.20298648  -0.00798982  1
  N  N25  1  0.49722701  0.60943918  0.08179200  1
  Ta  Ta26  1  0.42237441  0.02299004  0.50162111  1
  C  C27  1  0.52146203  0.45970191  0.65969104  1
  Ta  Ta28  1  0.42103768  0.29255457  0.68436389  1
  C  C29  1  0.47542246  0.54975610  0.74243866  1
  Ta  Ta30  1  0.35317509  0.69538528  0.09741658  1
  C  C31  1  0.43007210  0.82041102  -0.04685009  1
  Ta  Ta32  1  0.30784734  0.81319318  0.36385059  1
  N  N33  1  0.63727436  0.72483429  0.53442652  1
  Zr  Zr34  1  0.29360280  0.66941389  0.74393913  1
  C  C35  1  0.41072773  0.88029380  0.83251881  1
  Ta  Ta36  1  0.54625533  0.00075226  -0.07634959  1
  C  C37  1  0.74679141  0.28002794  0.11468110  1
  Ta  Ta38  1  0.64250397  0.14386678  0.39558816  1
  C  C39  1  0.76298252  0.23828803  0.50172049  1
  Zr  Zr40  1  0.64394259  0.14073127  0.68433992  1
  C  C41  1  0.75578712  0.30272260  0.78343397  1
  Ta  Ta42  1  0.72388263  0.19352195  -0.05070511  1
  C  C43  1  0.78911633  0.33371249  0.21439348  1
  Ta  Ta44  1  0.60665141  0.37575321  0.50255738  1
  C  C45  1  0.76673898  0.50255755  0.52175657  1
  Zr  Zr46  1  0.59630648  0.40539339  0.86012229  1
  C  C47  1  0.84008427  0.34920415  0.87188002  1
  Ta  Ta48  1  0.51986173  0.66026492  -0.09845357  1
  N  N49  1  0.90123044  0.56894027  0.30150859  1
  Zr  Zr50  1  0.77335412  0.68361692  0.40361063  1
  C  C51  1  0.92182355  0.80842158  0.45160541  1
  Ta  Ta52  1  0.65916423  0.60693517  0.64875180  1
  N  N53  1  0.72283481  0.93226198  0.81087203  1
