# generated using pymatgen
data_Zr13Ta14C20N7
_symmetry_space_group_name_H-M   'P 1'
_cell_length_a   11.21079403
_cell_length_b   11.24649354
_cell_length_c   11.14679221
_cell_angle_alpha   90.77779359
_cell_angle_beta   89.10102663
_cell_angle_gamma   89.51004177
_symmetry_Int_Tables_number   1
_chemical_formula_structural   Zr13Ta14C20N7
_chemical_formula_sum   'Zr13 Ta14 C20 N7'
_cell_volume   1405.05476863
_cell_formula_units_Z   1
loop_
 _symmetry_equiv_pos_site_id
 _symmetry_equiv_pos_as_xyz
  1  'x, y, z'
loop_
 _atom_site_type_symbol
 _atom_site_label
 _atom_site_symmetry_multiplicity
 _atom_site_fract_x
 _atom_site_fract_y
 _atom_site_fract_z
 _atom_site_occupancy
  Ta  Ta0  1  -0.01782948  0.13091903  -0.08544106  1
  N  N1  1  0.24423139  0.16175823  0.07890367  1
  Zr  Zr2  1  0.06091720  -0.08243658  0.34629423  1
  C  C3  1  0.29994498  0.09219007  0.59192315  1
  Zr  Zr4  1  0.11930064  0.02823074  0.61936943  1
  C  C5  1  0.13325827  0.12957115  0.80505143  1
  Zr  Zr6  1  -0.02182374  0.36862950  0.08020842  1
  C  C7  1  0.21096601  0.65691451  0.16737014  1
  Ta  Ta8  1  -0.17213130  0.35229491  0.31097249  1
  N  N9  1  0.12981487  0.62244178  0.42246263  1
  Zr  Zr10  1  -0.11130187  0.26528614  0.72076822  1
  C  C11  1  0.16794879  0.41744371  1.00102822  1
  Ta  Ta12  1  0.12638556  0.58973911  0.01445966  1
  C  C13  1  0.16083132  0.78063897  0.17675504  1
  Zr  Zr14  1  0.01958435  0.63802659  0.26307669  1
  C  C15  1  0.18939086  0.86370923  0.49551839  1
  Ta  Ta16  1  0.06218191  0.73665844  0.53920701  1
  C  C17  1  0.28382651  0.89869213  0.93179533  1
  Zr  Zr18  1  0.37783012  0.03406542  0.06947917  1
  C  C19  1  0.54501931  0.10804882  0.15201333  1
  Ta  Ta20  1  0.36006533  -0.06051237  0.48682063  1
  C  C21  1  0.46790267  0.31057465  0.46758006  1
  Zr  Zr22  1  0.33079177  0.03399871  0.79305538  1
  C  C23  1  0.49035079  0.08232157  0.89841237  1
  Ta  Ta24  1  0.21859772  0.24901253  -0.05490844  1
  N  N25  1  0.56594913  0.56330764  0.21388052  1
  Zr  Zr26  1  0.46839838  0.14974739  0.33461271  1
  C  C27  1  0.65899106  0.55158865  0.49533787  1
  Ta  Ta28  1  0.45885022  0.16804969  0.59647172  1
  N  N29  1  0.45604757  0.61035842  0.69480982  1
  Ta  Ta30  1  0.32528671  0.75478548  0.03807367  1
  C  C31  1  0.48189422  0.83165521  0.10091706  1
  Ta  Ta32  1  0.25312556  0.73074579  0.34717733  1
  N  N33  1  0.44002750  0.82055181  0.56710542  1
  Zr  Zr34  1  0.30766731  0.71736182  0.67430168  1
  C  C35  1  0.28882625  0.81727362  0.83934609  1
  Zr  Zr36  1  0.63055817  -0.04738273  0.01964043  1
  C  C37  1  0.83159014  0.24238287  0.13826727  1
  Ta  Ta38  1  0.71044762  0.13306857  0.22526710  1
  C  C39  1  0.67151302  0.23267861  0.37062617  1
  Zr  Zr40  1  0.63851905  0.03929105  0.76394144  1
  C  C41  1  0.81460315  0.11065486  0.82611718  1
  Ta  Ta42  1  0.75054453  0.23918603  -0.03308933  1
  C  C43  1  0.88918733  0.50251845  0.20865608  1
  Ta  Ta44  1  0.56196961  0.40846656  0.32248176  1
  C  C45  1  0.72712645  0.47030489  0.42876683  1
  Zr  Zr46  1  0.65898871  0.32399784  0.54764056  1
  C  C47  1  0.91994231  0.32355622  0.90019993  1
  Ta  Ta48  1  0.56937386  0.67156258  0.08738176  1
  N  N49  1  0.86165455  0.75726569  0.33269120  1
  Zr  Zr50  1  0.74175367  0.61641574  0.29542133  1
  C  C51  1  0.92172165  0.78108197  0.42517774  1
  Ta  Ta52  1  0.56228533  0.67792766  0.59506660  1
  N  N53  1  0.65710295  0.89338059  0.85153649  1
