# generated using pymatgen
data_Zr10Ta17C16N11
_symmetry_space_group_name_H-M   'P 1'
_cell_length_a   10.98563638
_cell_length_b   11.32197607
_cell_length_c   11.12251773
_cell_angle_alpha   89.71822941
_cell_angle_beta   89.14750176
_cell_angle_gamma   90.83052037
_symmetry_Int_Tables_number   1
_chemical_formula_structural   Zr10Ta17C16N11
_chemical_formula_sum   'Zr10 Ta17 C16 N11'
_cell_volume   1383.09220283
_cell_formula_units_Z   1
loop_
 _symmetry_equiv_pos_site_id
 _symmetry_equiv_pos_as_xyz
  1  'x, y, z'
loop_
 _atom_site_type_symbol
 _atom_site_label
 _atom_site_symmetry_multiplicity
 _atom_site_fract_x
 _atom_site_fract_y
 _atom_site_fract_z
 _atom_site_occupancy
  Ta  Ta0  1  0.03236186  0.11696133  -0.05468937  1
  N  N1  1  0.18767698  0.16855383  0.01551738  1
  Zr  Zr2  1  -0.08038605  -0.11182441  0.32402394  1
  C  C3  1  0.26012554  0.08161541  0.50926383  1
  Zr  Zr4  1  0.05952364  0.05650181  0.55645913  1
  C  C5  1  0.15719825  0.14986372  0.74327179  1
  Ta  Ta6  1  0.00725651  0.38108184  -0.04506931  1
  C  C7  1  0.13995824  0.51804910  0.01157629  1
  Ta  Ta8  1  -0.18967247  0.23239737  0.45582264  1
  N  N9  1  0.23952020  0.66187419  0.56575998  1
  Zr  Zr10  1  0.00908846  0.27698158  0.71505391  1
  C  C11  1  0.20286346  0.44085067  0.92810438  1
  Ta  Ta12  1  -0.03838697  0.61169895  0.06287516  1
  N  N13  1  -0.02526465  0.71126728  0.20083475  1
  Zr  Zr14  1  0.00139076  0.60733794  0.35299184  1
  C  C15  1  0.05362738  0.87535059  0.50631326  1
  Ta  Ta16  1  0.09283040  0.72859519  0.62026384  1
  N  N17  1  0.23957537  0.76845879  0.87596539  1
  Zr  Zr18  1  0.33901876  0.00647661  -0.00689052  1
  C  C19  1  0.59649653  0.26057602  0.08165156  1
  Ta  Ta20  1  0.43536566  0.10934337  0.42937937  1
  C  C21  1  0.61673343  0.19003130  0.44552747  1
  Zr  Zr22  1  0.32386124  0.01986481  0.71066575  1
  C  C23  1  0.41102653  0.14734648  0.84954822  1
  Ta  Ta24  1  0.25478985  0.25600062  -0.12159627  1
  N  N25  1  0.63492885  0.47908249  0.25535743  1
  Ta  Ta26  1  0.52370785  0.33603520  0.52820576  1
  C  C27  1  0.44199995  0.48863431  0.47121192  1
  Ta  Ta28  1  0.27958882  0.24862777  0.60563443  1
  N  N29  1  0.46569983  0.57568139  0.74022411  1
  Ta  Ta30  1  0.14100244  0.62193687  -0.14623130  1
  N  N31  1  0.50859417  0.97888727  0.02251403  1
  Ta  Ta32  1  0.37116703  0.64897765  0.44069172  1
  N  N33  1  0.48924771  0.73091693  0.53218336  1
  Zr  Zr34  1  0.36743827  0.72445518  0.70930994  1
  C  C35  1  0.27984066  0.87110127  0.84292551  1
  Ta  Ta36  1  0.57458332  0.13758911  -0.05727448  1
  C  C37  1  0.79168471  0.22203941  0.26461848  1
  Ta  Ta38  1  0.70426010  0.03769668  0.35270191  1
  C  C39  1  0.87554602  0.05960779  0.45474463  1
  Zr  Zr40  1  0.61328184  0.12535472  0.64742186  1
  C  C41  1  0.89534480  0.23136207  0.88767005  1
  Ta  Ta42  1  0.79958908  0.25917577  0.07802398  1
  C  C43  1  0.86852105  0.44171633  0.08491895  1
  Ta  Ta44  1  0.61387156  0.30994370  0.26599477  1
  N  N45  1  0.83241138  0.58553914  0.40364154  1
  Zr  Zr46  1  0.75370158  0.35497803  0.81917446  1
  C  C47  1  0.82895942  0.47933621  0.95858279  1
  Ta  Ta48  1  0.68626537  0.51120956  0.09007481  1
  N  N49  1  0.73764008  0.86042867  0.33437519  1
  Zr  Zr50  1  0.69227156  0.66048015  0.33785536  1
  C  C51  1  1.02508975  0.76939543  0.45127359  1
  Ta  Ta52  1  0.55785379  0.57345121  0.60344423  1
  N  N53  1  0.81933005  0.91110531  0.78810654  1
