# generated using pymatgen
data_Zr20Ta7C23N4
_symmetry_space_group_name_H-M   'P 1'
_cell_length_a   11.08810977
_cell_length_b   11.06974958
_cell_length_c   10.91368623
_cell_angle_alpha   90.00289928
_cell_angle_beta   89.48514399
_cell_angle_gamma   89.72587051
_symmetry_Int_Tables_number   1
_chemical_formula_structural   Zr20Ta7C23N4
_chemical_formula_sum   'Zr20 Ta7 C23 N4'
_cell_volume   1339.50478690
_cell_formula_units_Z   1
loop_
 _symmetry_equiv_pos_site_id
 _symmetry_equiv_pos_as_xyz
  1  'x, y, z'
loop_
 _atom_site_type_symbol
 _atom_site_label
 _atom_site_symmetry_multiplicity
 _atom_site_fract_x
 _atom_site_fract_y
 _atom_site_fract_z
 _atom_site_occupancy
  Ta  Ta0  1  0.06990589  0.05554597  -0.02066734  1
  C  C1  1  0.19792371  0.13640077  0.11891305  1
  Zr  Zr2  1  0.07788164  -0.10514676  0.36673864  1
  C  C3  1  0.19132111  0.02772415  0.46890239  1
  Zr  Zr4  1  0.13963216  -0.04037168  0.66613210  1
  C  C5  1  0.15818435  0.11379703  0.81893163  1
  Zr  Zr6  1  -0.05654992  0.28754076  0.02830674  1
  C  C7  1  0.16893238  0.63150414  0.14275519  1
  Ta  Ta8  1  -0.20860961  0.39508553  0.21306002  1
  C  C9  1  0.13450527  0.70103176  0.41670496  1
  Zr  Zr10  1  0.02618467  0.24196728  0.74456387  1
  C  C11  1  0.26735038  0.56945876  0.86862042  1
  Zr  Zr12  1  0.08718379  0.53843177  -0.00917403  1
  C  C13  1  0.24861997  0.87604348  0.21841147  1
  Zr  Zr14  1  -0.00144277  0.59975065  0.27595765  1
  C  C15  1  -0.02120315  0.89858418  0.58194161  1
  Zr  Zr16  1  0.02445328  0.68968552  0.57431148  1
  C  C17  1  0.28457503  0.87275401  0.80516762  1
  Zr  Zr18  1  0.30533343  -0.02932161  0.04571564  1
  C  C19  1  0.53542428  0.05265104  0.21750113  1
  Zr  Zr20  1  0.32255124  0.05326504  0.30489652  1
  C  C21  1  0.43706969  0.16604377  0.46286102  1
  Zr  Zr22  1  0.35838880  0.06923200  0.78298891  1
  C  C23  1  0.54668134  0.13758431  0.81329259  1
  Ta  Ta24  1  0.22160333  0.24383291  -0.04011450  1
  N  N25  1  0.56945733  0.41990312  -0.02370112  1
  Zr  Zr26  1  0.25718389  0.19843701  0.53244461  1
  C  C27  1  0.51643744  0.41699279  0.65632652  1
  Ta  Ta28  1  0.51740382  0.23306295  0.64187447  1
  C  C29  1  0.65095256  0.58212826  0.77950133  1
  Zr  Zr30  1  0.31818853  0.70237625  0.00986311  1
  C  C31  1  0.48446126  1.02786261  0.11452517  1
  Ta  Ta32  1  0.26259302  0.70581026  0.28317601  1
  N  N33  1  0.63958249  0.89760961  0.42688841  1
  Zr  Zr34  1  0.30176753  0.69375403  0.71973854  1
  C  C35  1  0.39047630  0.86202004  0.87329447  1
  Zr  Zr36  1  0.57791564  -0.03590766  -0.07228266  1
  C  C37  1  0.77049184  0.24112587  0.12510415  1
  Zr  Zr38  1  0.61616848  0.07204683  0.40058338  1
  C  C39  1  0.69297344  0.22266528  0.55746907  1
  Zr  Zr40  1  0.74556584  0.08332152  0.72214137  1
  C  C41  1  0.82892510  0.23866838  0.82122397  1
  Zr  Zr42  1  0.66009711  0.26319613  -0.05122450  1
  C  C43  1  0.94035150  0.46719589  0.12340211  1
  Zr  Zr44  1  0.60930442  0.37197153  0.43914108  1
  C  C45  1  0.70828239  0.54187621  0.49670936  1
  Zr  Zr46  1  0.74919698  0.40432470  0.68122754  1
  C  C47  1  0.87148346  0.35400078  0.84785820  1
  Ta  Ta48  1  0.49070723  0.49216457  -0.15466038  1
  N  N49  1  0.86666770  0.71660413  0.28102448  1
  Zr  Zr50  1  0.75054894  0.74708287  0.42224317  1
  C  C51  1  0.89219935  0.84391141  0.52023820  1
  Ta  Ta52  1  0.57013789  0.59640042  0.61162047  1
  N  N53  1  0.73457822  0.95631945  0.84753069  1
