# generated using pymatgen
data_Zr27C11N16
_symmetry_space_group_name_H-M   'P 1'
_cell_length_a   10.73080779
_cell_length_b   11.15532320
_cell_length_c   11.28163438
_cell_angle_alpha   89.04334740
_cell_angle_beta   90.20112877
_cell_angle_gamma   90.38828318
_symmetry_Int_Tables_number   1
_chemical_formula_structural   Zr27C11N16
_chemical_formula_sum   'Zr27 C11 N16'
_cell_volume   1350.24810238
_cell_formula_units_Z   1
loop_
 _symmetry_equiv_pos_site_id
 _symmetry_equiv_pos_as_xyz
  1  'x, y, z'
loop_
 _atom_site_type_symbol
 _atom_site_label
 _atom_site_symmetry_multiplicity
 _atom_site_fract_x
 _atom_site_fract_y
 _atom_site_fract_z
 _atom_site_occupancy
  Zr  Zr0  1  -0.12771151  0.06601054  -0.07202752  1
  N  N1  1  0.18622696  0.22251376  0.29716426  1
  Zr  Zr2  1  -0.00276714  -0.07334818  0.44824188  1
  C  C3  1  0.13167308  0.08032359  0.52723199  1
  Zr  Zr4  1  0.06462897  0.03719153  0.71160158  1
  C  C5  1  0.23629110  0.14655611  0.76386117  1
  Zr  Zr6  1  -0.11420185  0.39712414  0.00915479  1
  N  N7  1  0.18460300  0.54463104  0.31678733  1
  Zr  Zr8  1  0.02427085  0.21198867  0.40144969  1
  N  N9  1  0.13542090  0.63690432  0.57133985  1
  Zr  Zr10  1  0.05605611  0.28382472  0.82491935  1
  C  C11  1  0.01985571  0.47984384  0.87084124  1
  Zr  Zr12  1  -0.03017512  0.68254268  -0.12120792  1
  N  N13  1  0.14288526  0.79687029  0.36853714  1
  Zr  Zr14  1  0.02449135  0.65649100  0.28903540  1
  C  C15  1  0.21964059  0.86452199  0.42620510  1
  Zr  Zr16  1  -0.04749222  0.60226381  0.59178988  1
  N  N17  1  0.29263280  0.74317237  0.76232312  1
  Zr  Zr18  1  0.32347257  -0.00641559  -0.11366906  1
  C  C19  1  0.67640544  0.12026432  0.17326610  1
  Zr  Zr20  1  0.26970388  0.07214470  0.36530646  1
  N  N21  1  0.36216750  0.20560212  0.48403996  1
  Zr  Zr22  1  0.35670394  0.04963902  0.61325902  1
  C  C23  1  0.47852659  0.13334334  0.93356596  1
  Zr  Zr24  1  0.38885977  0.26708325  -0.17491222  1
  N  N25  1  0.47137951  0.31954352  0.24719566  1
  Zr  Zr26  1  0.32353940  0.34650266  0.34876265  1
  N  N27  1  0.47178268  0.63833633  0.44306751  1
  Zr  Zr28  1  0.21550688  0.26784123  0.59974442  1
  N  N29  1  0.52293035  0.60625251  0.89209246  1
  Zr  Zr30  1  0.35671061  0.68126026  -0.08530446  1
  N  N31  1  0.45543083  0.84231635  -0.04050352  1
  Zr  Zr32  1  0.26964989  0.64787031  0.43751718  1
  N  N33  1  0.57610174  0.67132037  0.44983421  1
  Zr  Zr34  1  0.16225834  0.79625514  0.65564732  1
  C  C35  1  0.54061246  0.89221229  0.88122403  1
  Zr  Zr36  1  0.54934943  -0.00216404  0.06046344  1
  C  C37  1  0.74887137  0.09977206  0.07250758  1
  Zr  Zr38  1  0.82770949  -0.02405494  0.22442701  1
  N  N39  1  0.92391187  0.07688508  0.33795452  1
  Zr  Zr40  1  0.59596704  0.05714206  0.77959475  1
  C  C41  1  0.84149198  0.25221931  0.85708639  1
  Zr  Zr42  1  0.65201764  0.25383902  -0.04078064  1
  N  N43  1  0.70798037  0.39080228  0.07683006  1
  Zr  Zr44  1  0.65295463  0.30893914  0.23163116  1
  N  N45  1  0.90327902  0.59980509  0.41030181  1
  Zr  Zr46  1  0.78429963  0.39314191  0.73758773  1
  C  C47  1  0.94753573  0.50951697  0.77034846  1
  Zr  Zr48  1  0.63599703  0.71895522  -0.03258127  1
  N  N49  1  0.88744961  0.82202671  0.31013782  1
  Zr  Zr50  1  0.77068546  0.73424125  0.43400727  1
  C  C51  1  0.90560303  0.80575292  0.59299555  1
  Zr  Zr52  1  0.75845684  0.84394400  0.72195912  1
  N  N53  1  0.78836865  0.72843761  0.85814721  1
