# generated using pymatgen
data_Zr11Ta16C27
_symmetry_space_group_name_H-M   'P 1'
_cell_length_a   10.43354546
_cell_length_b   10.72486112
_cell_length_c   10.94470874
_cell_angle_alpha   89.16468930
_cell_angle_beta   90.86214474
_cell_angle_gamma   89.86575778
_symmetry_Int_Tables_number   1
_chemical_formula_structural   Zr11Ta16C27
_chemical_formula_sum   'Zr11 Ta16 C27'
_cell_volume   1224.42178544
_cell_formula_units_Z   1
loop_
 _symmetry_equiv_pos_site_id
 _symmetry_equiv_pos_as_xyz
  1  'x, y, z'
loop_
 _atom_site_type_symbol
 _atom_site_label
 _atom_site_symmetry_multiplicity
 _atom_site_fract_x
 _atom_site_fract_y
 _atom_site_fract_z
 _atom_site_occupancy
  Ta  Ta0  1  -0.07913094  0.01150860  -0.09037844  1
  C  C1  1  0.34239003  0.19159511  0.21771344  1
  Zr  Zr2  1  -0.02163786  -0.07695762  0.33036342  1
  C  C3  1  0.16549787  0.28862473  0.44649789  1
  Zr  Zr4  1  -0.02105287  0.05747890  0.61205978  1
  C  C5  1  0.24302565  0.29583946  0.88896231  1
  Ta  Ta6  1  -0.07168657  0.27800638  -0.03851435  1
  C  C7  1  0.06217933  0.58337422  0.09638036  1
  Ta  Ta8  1  -0.04012091  0.28326524  0.42102477  1
  C  C9  1  0.15846946  0.65028516  0.51385941  1
  Zr  Zr10  1  0.00751919  0.30910496  0.69915857  1
  C  C11  1  0.11857334  0.29065717  0.87801592  1
  Ta  Ta12  1  -0.01304181  0.74798588  0.09777383  1
  C  C13  1  0.12203139  0.79958582  0.24670093  1
  Zr  Zr14  1  0.03058997  0.60103098  0.33888742  1
  C  C15  1  0.11377914  0.94184507  0.50740498  1
  Ta  Ta16  1  0.00845635  0.77293010  0.56954750  1
  C  C17  1  0.30973549  0.83460045  0.81755880  1
  Zr  Zr18  1  0.34213203  -0.02984253  -0.02103388  1
  C  C19  1  0.32706937  0.12042774  0.11970686  1
  Ta  Ta20  1  0.22621726  0.09035980  0.43776634  1
  C  C21  1  0.47020285  0.22680409  0.52166422  1
  Zr  Zr22  1  0.40743075  -0.03503711  0.68346212  1
  C  C23  1  0.48380684  0.11946331  0.88314914  1
  Ta  Ta24  1  0.40333576  0.25716247  -0.01047043  1
  C  C25  1  0.54431263  0.43721327  0.32244558  1
  Ta  Ta26  1  0.37311503  0.31910845  0.35949640  1
  C  C27  1  0.52967347  0.33892991  0.53517904  1
  Ta  Ta28  1  0.28101069  0.25038211  0.61544546  1
  C  C29  1  0.49552620  0.60189822  0.73947554  1
  Ta  Ta30  1  0.48787285  0.75017062  -0.13453732  1
  C  C31  1  0.51650539  0.85113679  0.04781760  1
  Ta  Ta32  1  0.23504331  0.81245566  0.42151816  1
  C  C33  1  0.40761091  0.80305149  0.53667252  1
  Zr  Zr34  1  0.28833399  0.68093257  0.67203460  1
  C  C35  1  0.60086316  0.88762389  0.75238541  1
  Zr  Zr36  1  0.64165394  -0.02082795  -0.05929160  1
  C  C37  1  0.79306109  0.13065336  0.02334714  1
  Ta  Ta38  1  0.76601132  -0.13302666  0.50060015  1
  C  C39  1  0.81884492  0.19307409  0.53414079  1
  Zr  Zr40  1  0.69244031  0.07165105  0.66239350  1
  C  C41  1  0.83681557  0.17833911  0.79547485  1
  Ta  Ta42  1  0.66267598  0.24211533  -0.09600701  1
  C  C43  1  0.82194970  0.61814948  0.18264628  1
  Ta  Ta44  1  0.68396452  0.29400913  0.38609544  1
  C  C45  1  0.84533972  0.43974476  0.40908535  1
  Zr  Zr46  1  0.73367261  0.38542709  0.61886568  1
  C  C47  1  0.81823029  0.32668648  0.80152904  1
  Ta  Ta48  1  0.70371161  0.74689765  0.07108083  1
  C  C49  1  0.81278506  0.73433479  0.24090857  1
  Zr  Zr50  1  0.71471855  0.59762937  0.38360658  1
  C  C51  1  0.88820292  0.74451434  0.41239737  1
  Ta  Ta52  1  0.58030267  0.74979240  0.61830686  1
  C  C53  1  0.82998042  0.85783482  0.97962633  1
