# generated using pymatgen
data_Zr18Ta9C23N4
_symmetry_space_group_name_H-M   'P 1'
_cell_length_a   11.02031008
_cell_length_b   11.13483260
_cell_length_c   11.06498641
_cell_angle_alpha   89.78174283
_cell_angle_beta   88.03569258
_cell_angle_gamma   89.60945668
_symmetry_Int_Tables_number   1
_chemical_formula_structural   Zr18Ta9C23N4
_chemical_formula_sum   'Zr18 Ta9 C23 N4'
_cell_volume   1356.93875060
_cell_formula_units_Z   1
loop_
 _symmetry_equiv_pos_site_id
 _symmetry_equiv_pos_as_xyz
  1  'x, y, z'
loop_
 _atom_site_type_symbol
 _atom_site_label
 _atom_site_symmetry_multiplicity
 _atom_site_fract_x
 _atom_site_fract_y
 _atom_site_fract_z
 _atom_site_occupancy
  Ta  Ta0  1  0.05283278  0.06469547  0.05382627  1
  C  C1  1  0.21177189  0.14250250  0.14884258  1
  Zr  Zr2  1  0.03118943  -0.07163053  0.30402408  1
  C  C3  1  0.14418470  0.05835372  0.43263706  1
  Zr  Zr4  1  0.02657380  0.01729072  0.60662962  1
  C  C5  1  0.14230856  0.10640681  0.89258208  1
  Zr  Zr6  1  -0.00654556  0.24769634  -0.13223981  1
  C  C7  1  0.12047945  0.50138854  0.15308691  1
  Ta  Ta8  1  0.06727735  0.29419486  0.16625956  1
  C  C9  1  0.10086731  0.60573178  0.41290648  1
  Zr  Zr10  1  -0.15540953  0.28812615  0.62462995  1
  C  C11  1  0.20413255  0.60394645  0.90998072  1
  Ta  Ta12  1  0.09656312  0.46902662  -0.03851550  1
  C  C13  1  0.21741235  0.83676808  0.21152910  1
  Zr  Zr14  1  -0.02519140  0.63139782  0.26545580  1
  C  C15  1  0.08703862  0.84066907  0.49034746  1
  Zr  Zr16  1  -0.00513861  0.66377714  0.57497724  1
  C  C17  1  0.30542143  0.89792353  0.83778155  1
  Zr  Zr18  1  0.28451160  -0.05547508  0.04135185  1
  C  C19  1  0.50829342  0.00257680  0.22647182  1
  Zr  Zr20  1  0.29474675  0.02386219  0.29334041  1
  C  C21  1  0.45708106  0.20140905  0.46055560  1
  Zr  Zr22  1  0.27084540  0.06784853  0.75219290  1
  C  C23  1  0.66884896  0.14606316  0.85366095  1
  Ta  Ta24  1  0.25640374  0.23325387  -0.01583187  1
  N  N25  1  0.44480310  0.60875774  0.04744347  1
  Zr  Zr26  1  0.25413097  0.19549104  0.50667059  1
  C  C27  1  0.58445991  0.38915184  0.63630943  1
  Ta  Ta28  1  0.48660232  0.22303565  0.65727114  1
  C  C29  1  0.65602933  0.60069524  0.80127331  1
  Zr  Zr30  1  0.26495247  0.64380311  0.10024506  1
  C  C31  1  0.48553817  1.00131157  0.11098688  1
  Ta  Ta32  1  0.21815035  0.74747201  0.38896007  1
  N  N33  1  0.65013234  0.92555254  0.51037449  1
  Zr  Zr34  1  0.23985108  0.71912805  0.76495753  1
  C  C35  1  0.38225502  0.81139847  0.87878645  1
  Zr  Zr36  1  0.50317698  0.06739383  -0.08414312  1
  C  C37  1  0.92625440  0.20307884  0.07004047  1
  Zr  Zr38  1  0.60204131  0.06160025  0.39342031  1
  C  C39  1  0.73360903  0.18046549  0.50900539  1
  Zr  Zr40  1  0.70357882  0.02491470  0.65194041  1
  C  C41  1  0.77039051  0.20749896  0.80411388  1
  Zr  Zr42  1  0.74905686  0.25135402  0.01989286  1
  C  C43  1  0.99141521  0.47448115  0.13215008  1
  Ta  Ta44  1  0.61759382  0.31959568  0.46717948  1
  C  C45  1  0.80509215  0.62189029  0.53787256  1
  Zr  Zr46  1  0.61404771  0.40307856  0.83023665  1
  C  C47  1  0.80735741  0.32980684  0.83085807  1
  Ta  Ta48  1  0.50358387  0.67611795  -0.09236993  1
  N  N49  1  0.89261012  0.79590594  0.27655955  1
  Zr  Zr50  1  0.78088389  0.80299442  0.43857891  1
  C  C51  1  0.96269238  0.84956043  0.49771811  1
  Ta  Ta52  1  0.64481598  0.57473153  0.61693429  1
  N  N53  1  0.86839533  0.97193025  0.67025078  1
