# generated using pymatgen
data_Zr18Ta9C20N7
_symmetry_space_group_name_H-M   'P 1'
_cell_length_a   11.25598113
_cell_length_b   11.26934797
_cell_length_c   10.92956245
_cell_angle_alpha   90.76379985
_cell_angle_beta   89.26534871
_cell_angle_gamma   90.88379359
_symmetry_Int_Tables_number   1
_chemical_formula_structural   Zr18Ta9C20N7
_chemical_formula_sum   'Zr18 Ta9 C20 N7'
_cell_volume   1385.98995372
_cell_formula_units_Z   1
loop_
 _symmetry_equiv_pos_site_id
 _symmetry_equiv_pos_as_xyz
  1  'x, y, z'
loop_
 _atom_site_type_symbol
 _atom_site_label
 _atom_site_symmetry_multiplicity
 _atom_site_fract_x
 _atom_site_fract_y
 _atom_site_fract_z
 _atom_site_occupancy
  Ta  Ta0  1  0.03785725  0.12690414  -0.10047363  1
  N  N1  1  0.26407637  0.12998676  0.32513276  1
  Zr  Zr2  1  -0.09934996  -0.12234472  0.39672431  1
  C  C3  1  0.30308619  0.01474392  0.56667329  1
  Zr  Zr4  1  0.06744756  0.04008761  0.61981273  1
  C  C5  1  0.14539866  0.19344794  0.75644384  1
  Zr  Zr6  1  0.02734145  0.31363559  0.09828563  1
  C  C7  1  0.17740061  0.61699000  0.18655529  1
  Ta  Ta8  1  -0.17721606  0.40908764  0.29216123  1
  N  N9  1  0.12059009  0.71949061  0.50778757  1
  Zr  Zr10  1  0.02612684  0.36859381  0.78426601  1
  C  C11  1  0.12651645  0.42798189  0.95362586  1
  Ta  Ta12  1  0.03762443  0.56945017  0.03603233  1
  C  C13  1  0.18479987  0.69828540  0.09706648  1
  Zr  Zr14  1  0.04479960  0.64727405  0.35347816  1
  C  C15  1  0.07079431  0.86861644  0.48219388  1
  Zr  Zr16  1  -0.02235078  0.73491568  0.64381006  1
  C  C17  1  0.24831023  0.89922428  0.87218880  1
  Zr  Zr18  1  0.34876605  -0.03101386  0.04655247  1
  C  C19  1  0.49171369  0.03721026  0.19441640  1
  Zr  Zr20  1  0.38337913  -0.03201066  0.34948651  1
  C  C21  1  0.46009442  0.21799852  0.44954181  1
  Zr  Zr22  1  0.31131779  0.06352130  0.77285344  1
  C  C23  1  0.46081127  0.07171707  0.90194560  1
  Ta  Ta24  1  0.23490566  0.28367385  -0.09086807  1
  N  N25  1  0.51932935  0.64057920  0.23210074  1
  Zr  Zr26  1  0.41080859  0.21333430  0.24101050  1
  C  C27  1  0.68244315  0.43117530  0.51341053  1
  Ta  Ta28  1  0.28521917  0.17446504  0.48825031  1
  N  N29  1  0.46169950  0.57464465  0.95859192  1
  Zr  Zr30  1  0.31433455  0.68737484  -0.06129299  1
  C  C31  1  0.44232898  0.80336531  0.05616919  1
  Ta  Ta32  1  0.36834576  0.70032305  0.21079900  1
  N  N33  1  0.55059779  0.94436083  0.44291795  1
  Zr  Zr34  1  0.24094381  0.83007463  0.58566238  1
  C  C35  1  0.26266178  0.81879858  0.78635677  1
  Zr  Zr36  1  0.59545127  0.09074117  0.03179263  1
  C  C37  1  0.69253718  0.26499291  0.21806664  1
  Zr  Zr38  1  0.65683759  0.04374870  0.32277287  1
  C  C39  1  0.71176510  0.14492125  0.51425328  1
  Zr  Zr40  1  0.53115232  0.06481702  0.57309917  1
  C  C41  1  0.85073072  0.26260215  0.82828069  1
  Zr  Zr42  1  0.75670900  0.35403680  0.04117567  1
  C  C43  1  0.90165031  0.48393645  0.14324848  1
  Ta  Ta44  1  0.62959692  0.28399379  0.41509902  1
  C  C45  1  0.86997909  0.60885218  0.46008200  1
  Zr  Zr46  1  0.74744214  0.28665254  0.66317363  1
  C  C47  1  0.90624622  0.25944878  0.94292250  1
  Ta  Ta48  1  0.55889731  0.66666391  0.05531698  1
  N  N49  1  0.92343649  0.75872044  0.26129527  1
  Zr  Zr50  1  0.77412720  0.64219528  0.27085112  1
  C  C51  1  0.82085582  0.72631256  0.50374071  1
  Ta  Ta52  1  0.74107975  0.57592161  0.59096187  1
  N  N53  1  1.01855204  0.89547901  0.71419840  1
