# generated using pymatgen
data_Zr13Ta14N27
_symmetry_space_group_name_H-M   'P 1'
_cell_length_a   11.33113626
_cell_length_b   11.60198987
_cell_length_c   11.56587071
_cell_angle_alpha   90.81756311
_cell_angle_beta   91.28012533
_cell_angle_gamma   88.19613646
_symmetry_Int_Tables_number   1
_chemical_formula_structural   Zr13Ta14N27
_chemical_formula_sum   'Zr13 Ta14 N27'
_cell_volume   1519.21967738
_cell_formula_units_Z   1
loop_
 _symmetry_equiv_pos_site_id
 _symmetry_equiv_pos_as_xyz
  1  'x, y, z'
loop_
 _atom_site_type_symbol
 _atom_site_label
 _atom_site_symmetry_multiplicity
 _atom_site_fract_x
 _atom_site_fract_y
 _atom_site_fract_z
 _atom_site_occupancy
  Ta  Ta0  1  -0.00085735  0.16715421  0.04012792  1
  N  N1  1  0.10623600  0.15319477  0.17985779  1
  Zr  Zr2  1  0.02288128  -0.09095970  0.35238372  1
  N  N3  1  0.05405962  0.09179321  0.41188679  1
  Zr  Zr4  1  -0.00576760  0.07201205  0.57408071  1
  N  N5  1  0.01417903  0.25738791  0.89973838  1
  Zr  Zr6  1  0.12137100  0.41042904  -0.02791388  1
  N  N7  1  0.25462498  0.37276902  0.13429257  1
  Ta  Ta8  1  0.09963450  0.34170438  0.23282820  1
  N  N9  1  0.29944556  0.42359603  0.43949219  1
  Zr  Zr10  1  0.02337012  0.34154194  0.73510350  1
  N  N11  1  0.13772608  0.44728259  0.81100504  1
  Ta  Ta12  1  -0.08420150  0.44679213  0.14615177  1
  N  N13  1  0.11744782  0.74455643  0.33209317  1
  Zr  Zr14  1  -0.02249631  0.64332214  0.38123050  1
  N  N15  1  0.11126474  0.89739378  0.52171852  1
  Ta  Ta16  1  0.22086207  0.78545535  0.46511355  1
  N  N17  1  0.28426520  0.76516038  0.78478163  1
  Zr  Zr18  1  0.34150614  -0.06058458  0.09606913  1
  N  N19  1  0.38103033  0.09974827  0.03582648  1
  Ta  Ta20  1  0.19056715  0.12685632  0.33052911  1
  N  N21  1  0.58996790  0.33915848  0.56268350  1
  Zr  Zr22  1  0.39538320  -0.09377231  0.72717585  1
  N  N23  1  0.53081364  0.02373651  0.75735696  1
  Ta  Ta24  1  0.26092128  0.20292408  0.09245443  1
  N  N25  1  0.50853157  0.48720456  0.29579212  1
  Zr  Zr26  1  0.37606534  0.34484582  0.28695284  1
  N  N27  1  0.48618111  0.55767840  0.54165028  1
  Ta  Ta28  1  0.41731592  0.39309154  0.56443531  1
  N  N29  1  0.48239350  0.62937506  0.84684830  1
  Ta  Ta30  1  0.37327635  0.72527419  -0.07857772  1
  N  N31  1  0.51040547  0.90956204  0.15125485  1
  Ta  Ta32  1  0.37624226  0.57399465  0.39236143  1
  N  N33  1  0.48979772  0.79052217  0.63203049  1
  Zr  Zr34  1  0.39062135  0.63561092  0.68655100  1
  N  N35  1  0.43789968  0.88053382  0.93203487  1
  Zr  Zr36  1  0.52796918  0.04548218  -0.06048444  1
  N  N37  1  0.83570309  0.20044845  0.05165553  1
  Ta  Ta38  1  0.73169724  -0.19912305  0.35390056  1
  N  N39  1  0.93181179  0.23250168  0.59150592  1
  Zr  Zr40  1  0.70544667  -0.01335149  0.76637425  1
  N  N41  1  0.75414921  0.15777963  0.77893497  1
  Ta  Ta42  1  0.81846561  0.26791684  -0.10719581  1
  N  N43  1  0.87176336  0.57037279  0.25651926  1
  Ta  Ta44  1  0.61145573  0.46427101  0.44724035  1
  N  N45  1  0.69572716  0.63995600  0.41890492  1
  Zr  Zr46  1  0.76199553  0.28814613  0.64165824  1
  N  N47  1  0.84506947  0.38645438  0.77453590  1
  Ta  Ta48  1  0.61062395  0.82333363  0.05555225  1
  N  N49  1  0.70991207  0.76452629  0.18619593  1
  Zr  Zr50  1  0.68029748  0.58416422  0.23607001  1
  N  N51  1  0.88669479  0.80321489  0.40969336  1
  Ta  Ta52  1  0.54627749  0.71775176  0.49157880  1
  N  N53  1  0.68197499  0.92980905  0.93995866  1
