# generated using pymatgen
data_C13N51
_symmetry_space_group_name_H-M   'P 1'
_cell_length_a   18.05657077
_cell_length_b   18.05700993
_cell_length_c   18.05866077
_cell_angle_alpha   90.00016882
_cell_angle_beta   89.99847480
_cell_angle_gamma   90.00016021
_symmetry_Int_Tables_number   1
_chemical_formula_structural   C13N51
_chemical_formula_sum   'C13 N51'
_cell_volume   5887.98440564
_cell_formula_units_Z   1
loop_
 _symmetry_equiv_pos_site_id
 _symmetry_equiv_pos_as_xyz
  1  'x, y, z'
loop_
 _atom_site_type_symbol
 _atom_site_label
 _atom_site_symmetry_multiplicity
 _atom_site_fract_x
 _atom_site_fract_y
 _atom_site_fract_z
 _atom_site_occupancy
  N  N0  1  0.00668105  -0.00000404  0.00006453  1
  N  N1  1  0.00006149  0.00000426  0.24351043  1
  C  C2  1  0.00015363  0.00008293  0.49994397  1
  N  N3  1  0.00682250  -0.00000110  0.75655547  1
  N  N4  1  -0.00651724  0.24992566  -0.00000274  1
  N  N5  1  0.00000486  0.24343093  0.25001769  1
  N  N6  1  -0.00002380  0.25645439  0.49998785  1
  N  N7  1  0.00674873  0.25003650  0.74999573  1
  N  N8  1  -0.00680987  0.50000497  -0.00669700  1
  C  C9  1  0.00119153  0.49998382  0.25008141  1
  N  N10  1  0.00003864  0.49993176  0.50662334  1
  N  N11  1  0.00000466  0.49995706  0.74991413  1
  N  N12  1  -0.00655677  0.75007408  0.00002498  1
  N  N13  1  0.00007354  0.75658207  0.24994333  1
  N  N14  1  0.00655716  0.74344693  0.49999058  1
  N  N15  1  0.00005129  0.75000668  0.75004067  1
  N  N16  1  0.24297813  -0.00000042  0.00005852  1
  N  N17  1  0.24340689  0.00000033  0.25017298  1
  N  N18  1  0.25645368  0.00000655  0.49995411  1
  N  N19  1  0.24989751  -0.00005165  0.74981577  1
  C  C20  1  0.24989421  0.24962488  0.00008589  1
  N  N21  1  0.24999669  0.24992856  0.25658479  1
  N  N22  1  0.25000173  0.24993997  0.49992183  1
  N  N23  1  0.24318981  0.25001343  0.74332353  1
  C  C24  1  0.25007162  0.49999514  -0.00010185  1
  N  N25  1  0.25684775  0.49999979  0.25682137  1
  N  N26  1  0.24995155  0.49999410  0.50008256  1
  N  N27  1  0.25003921  0.50007837  0.74328242  1
  C  C28  1  0.24992159  0.75037932  -0.00002439  1
  N  N29  1  0.25000056  0.75007138  0.25656407  1
  N  N30  1  0.25008821  0.75006112  0.50001292  1
  N  N31  1  0.24999077  0.74996204  0.74344638  1
  C  C32  1  0.49928536  -0.00004787  -0.00089133  1
  C  C33  1  0.49986527  0.00000008  0.25111870  1
  N  N34  1  0.49985764  -0.00000335  0.50661061  1
  N  N35  1  0.49313468  -0.00674149  0.74299037  1
  N  N36  1  0.50676281  0.25688970  0.00676105  1
  N  N37  1  0.49999928  0.25658683  0.25013735  1
  N  N38  1  0.50002264  0.24997278  0.49342154  1
  C  C39  1  0.49894474  0.25019484  0.74985366  1
  N  N40  1  0.50670807  0.50006475  -0.00000170  1
  N  N41  1  0.49332607  0.49999838  0.24998018  1
  N  N42  1  0.50000096  0.50000684  0.50000449  1
  N  N43  1  0.49999517  0.50660298  0.75001760  1
  N  N44  1  0.50666228  0.74318106  0.00001073  1
  N  N45  1  0.49993447  0.74341849  0.25008509  1
  N  N46  1  0.49353347  0.75001859  0.49996573  1
  N  N47  1  0.49995160  0.74981077  0.74994064  1
  C  C48  1  0.75086753  -0.00010575  0.00074045  1
  N  N49  1  0.75671491  0.00000299  0.25683755  1
  N  N50  1  0.74336316  0.00664950  0.49304559  1
  C  C51  1  0.75013751  -0.00081125  0.74925593  1
  N  N52  1  0.75004258  0.25681604  0.00681482  1
  N  N53  1  0.74999828  0.24345103  0.25006052  1
  N  N54  1  0.75000363  0.25006134  0.49328888  1
  C  C55  1  0.75107296  0.25087179  0.74987921  1
  N  N56  1  0.74994606  0.50006176  -0.00661897  1
  C  C57  1  0.74871565  0.49993527  0.24994730  1
  N  N58  1  0.75000579  0.49342502  0.50668447  1
  N  N59  1  0.74996279  0.50675624  0.75006274  1
  N  N60  1  0.75006679  0.74326824  -0.00001244  1
  N  N61  1  0.74999374  0.75668917  0.24343171  1
  C  C62  1  0.74990290  0.74995000  0.50001410  1
  N  N63  1  0.75000994  0.74310541  0.75656819  1
