# generated using pymatgen
data_Zr16Ta11C16N11
_symmetry_space_group_name_H-M   'P 1'
_cell_length_a   11.09480043
_cell_length_b   11.70463263
_cell_length_c   11.14700976
_cell_angle_alpha   89.02190819
_cell_angle_beta   86.92226231
_cell_angle_gamma   91.47364084
_symmetry_Int_Tables_number   1
_chemical_formula_structural   Zr16Ta11C16N11
_chemical_formula_sum   'Zr16 Ta11 C16 N11'
_cell_volume   1444.74408959
_cell_formula_units_Z   1
loop_
 _symmetry_equiv_pos_site_id
 _symmetry_equiv_pos_as_xyz
  1  'x, y, z'
loop_
 _atom_site_type_symbol
 _atom_site_label
 _atom_site_symmetry_multiplicity
 _atom_site_fract_x
 _atom_site_fract_y
 _atom_site_fract_z
 _atom_site_occupancy
  Ta  Ta0  1  -0.02391311  0.10249801  -0.02989263  1
  N  N1  1  0.06538897  0.15823730  0.11011013  1
  Zr  Zr2  1  -0.04458190  -0.09528968  0.36083817  1
  C  C3  1  0.20288556  0.07301128  0.55040219  1
  Zr  Zr4  1  0.00664538  0.12729759  0.55468366  1
  C  C5  1  0.23059028  0.22707701  0.78089584  1
  Zr  Zr6  1  0.02631323  0.34415703  0.07313105  1
  C  C7  1  0.16270390  0.52782427  -0.00299696  1
  Ta  Ta8  1  -0.07617830  0.15794877  0.25583975  1
  N  N9  1  0.18164159  0.59796417  0.50349201  1
  Zr  Zr10  1  0.06597722  0.34099366  0.78257190  1
  C  C11  1  0.12046791  0.45243736  0.91474525  1
  Ta  Ta12  1  -0.00980962  0.59640745  0.03310851  1
  N  N13  1  -0.00163545  0.77869768  0.22129388  1
  Zr  Zr14  1  0.05095349  0.65259494  0.35085763  1
  C  C15  1  0.05045941  0.80889512  0.48778187  1
  Ta  Ta16  1  0.10793614  0.71056440  0.61233195  1
  N  N17  1  0.18935976  0.74665113  0.76970847  1
  Zr  Zr18  1  0.46121399  0.07798266  -0.08744851  1
  C  C19  1  0.62432665  0.14549701  0.19594905  1
  Zr  Zr20  1  0.40225082  0.04315184  0.51674965  1
  C  C21  1  0.42412131  0.23123258  0.45796416  1
  Zr  Zr22  1  0.20267344  0.03376839  0.75074198  1
  C  C23  1  0.64236747  0.17408060  0.91553511  1
  Ta  Ta24  1  0.20566352  0.18348364  -0.03327656  1
  N  N25  1  0.53014483  0.38460363  0.26458924  1
  Zr  Zr26  1  0.37623725  0.39926058  0.36772134  1
  C  C27  1  0.43979080  0.51604433  0.49756667  1
  Ta  Ta28  1  0.26434783  0.24396849  0.58953313  1
  N  N29  1  0.39167700  0.57865495  0.77298060  1
  Ta  Ta30  1  0.22295764  0.58645597  -0.19274812  1
  N  N31  1  0.52575036  0.95991409  0.01686207  1
  Ta  Ta32  1  0.34015978  0.66428249  0.46333105  1
  N  N33  1  0.44459400  0.75064050  0.57272894  1
  Zr  Zr34  1  0.37508530  0.80843720  0.74465971  1
  C  C35  1  0.39667773  0.99464449  0.73822135  1
  Zr  Zr36  1  0.68676528  0.02884700  0.04241178  1
  C  C37  1  0.74907741  0.17274687  0.20716064  1
  Zr  Zr38  1  0.69208129  0.00550544  0.33192784  1
  C  C39  1  0.86685584  0.07940740  0.42073989  1
  Zr  Zr40  1  0.76040208  -0.01365785  0.58719301  1
  C  C41  1  0.91949174  0.26166921  0.91830911  1
  Zr  Zr42  1  0.74429536  0.29845300  0.04416010  1
  C  C43  1  0.87390741  0.45345340  0.11657063  1
  Ta  Ta44  1  0.59025059  0.25896155  0.33765494  1
  N  N45  1  0.88414346  0.60610432  0.39074433  1
  Zr  Zr46  1  0.79627656  0.19196978  0.78129680  1
  C  C47  1  0.83498732  0.48661825  0.98804725  1
  Ta  Ta48  1  0.73798333  0.56254286  0.12529094  1
  N  N49  1  0.88395903  0.79971875  0.21253613  1
  Zr  Zr50  1  0.75942853  0.70905497  0.33493796  1
  C  C51  1  0.75947791  0.85488977  0.44895940  1
  Ta  Ta52  1  0.50058451  0.60227836  0.63348876  1
  N  N53  1  0.88478814  1.05736603  0.69800694  1
