# generated using pymatgen
data_Zr5Ta22C10N17
_symmetry_space_group_name_H-M   'P 1'
_cell_length_a   11.25633897
_cell_length_b   11.42725396
_cell_length_c   11.55067637
_cell_angle_alpha   89.94420684
_cell_angle_beta   91.08964449
_cell_angle_gamma   90.93810403
_symmetry_Int_Tables_number   1
_chemical_formula_structural   Zr5Ta22C10N17
_chemical_formula_sum   'Zr5 Ta22 C10 N17'
_cell_volume   1485.28435209
_cell_formula_units_Z   1
loop_
 _symmetry_equiv_pos_site_id
 _symmetry_equiv_pos_as_xyz
  1  'x, y, z'
loop_
 _atom_site_type_symbol
 _atom_site_label
 _atom_site_symmetry_multiplicity
 _atom_site_fract_x
 _atom_site_fract_y
 _atom_site_fract_z
 _atom_site_occupancy
  Ta  Ta0  1  0.00086594  0.11910482  -0.01263702  1
  N  N1  1  0.25673485  0.16641869  0.29083993  1
  Zr  Zr2  1  -0.02542851  -0.07111928  0.32645206  1
  C  C3  1  0.09611499  0.10286769  0.46749084  1
  Ta  Ta4  1  -0.02377239  -0.01144325  0.57671022  1
  C  C5  1  0.13513953  0.24307763  0.91976103  1
  Ta  Ta6  1  -0.01481324  0.37295772  -0.07216427  1
  N  N7  1  0.14659093  0.35955020  0.22172472  1
  Ta  Ta8  1  0.07419158  0.21413440  0.25994862  1
  N  N9  1  0.16749551  0.58837463  0.61624786  1
  Ta  Ta10  1  -0.00290258  0.22093595  0.74544455  1
  C  C11  1  0.17877780  0.35209975  0.86982288  1
  Ta  Ta12  1  0.11779821  0.47441262  -0.26507998  1
  N  N13  1  0.14288974  0.94143992  0.26074322  1
  Ta  Ta14  1  -0.10678962  0.74599518  0.48751139  1
  C  C15  1  0.07011239  0.84273414  0.50369671  1
  Ta  Ta16  1  0.10496697  0.73956172  0.65326257  1
  N  N17  1  0.24776081  0.79452605  0.72516772  1
  Ta  Ta18  1  0.30853174  0.03246013  0.02468948  1
  C  C19  1  0.48677020  0.13604512  -0.01876253  1
  Ta  Ta20  1  0.22878952  0.02050994  0.37026575  1
  N  N21  1  0.47524994  0.30889632  0.30650684  1
  Ta  Ta22  1  0.38036095  0.05700168  0.79102055  1
  C  C23  1  0.52748972  0.17012790  0.86369594  1
  Ta  Ta24  1  0.34003795  0.25480038  -0.05692400  1
  N  N25  1  0.41977012  0.54331779  0.30704008  1
  Ta  Ta26  1  0.30607064  0.33713659  0.29262167  1
  N  N27  1  0.50266706  0.59070493  0.52801874  1
  Ta  Ta28  1  0.23119481  0.24734972  0.71347503  1
  N  N29  1  0.43198491  0.66138920  0.82974697  1
  Ta  Ta30  1  0.33973707  0.80321617  -0.13196072  1
  N  N31  1  0.59491759  0.73634396  0.27255230  1
  Ta  Ta32  1  0.47273842  0.68930496  0.38156894  1
  N  N33  1  0.57615729  0.81906188  0.48798323  1
  Zr  Zr34  1  0.36255145  0.63271901  0.65955396  1
  C  C35  1  0.48538456  0.90598944  0.81230350  1
  Ta  Ta36  1  0.53608018  -0.04484507  -0.01038517  1
  N  N37  1  0.97068223  0.16326038  0.13764110  1
  Ta  Ta38  1  0.69285399  -0.13455372  0.37948919  1
  N  N39  1  0.99723179  0.11514514  0.40631645  1
  Zr  Zr40  1  0.64360182  0.00123530  0.73985560  1
  C  C41  1  0.86764667  0.21032107  0.89182095  1
  Ta  Ta42  1  0.70395975  0.14689896  -0.03777591  1
  N  N43  1  0.68694481  0.49011815  0.31371298  1
  Ta  Ta44  1  0.54055772  0.44450440  0.38055522  1
  N  N45  1  0.79122745  0.63408694  0.56076040  1
  Zr  Zr46  1  0.76505950  0.33105586  0.77914460  1
  C  C47  1  0.93998704  0.41215427  0.74444262  1
  Ta  Ta48  1  0.58998883  0.75392688  -0.15897372  1
  N  N49  1  0.84236471  0.76006745  0.32271474  1
  Zr  Zr50  1  0.73446820  0.63401789  0.23320040  1
  C  C51  1  0.82717313  0.92853760  0.49062988  1
  Ta  Ta52  1  0.64442148  0.69669384  0.59840439  1
  N  N53  1  0.68961386  0.81537096  0.72010748  1
