# generated using pymatgen
data_Zr13Ta14C13N14
_symmetry_space_group_name_H-M   'P 1'
_cell_length_a   11.49171291
_cell_length_b   11.36817379
_cell_length_c   11.59915449
_cell_angle_alpha   90.19729720
_cell_angle_beta   88.67655177
_cell_angle_gamma   90.06999349
_symmetry_Int_Tables_number   1
_chemical_formula_structural   Zr13Ta14C13N14
_chemical_formula_sum   'Zr13 Ta14 C13 N14'
_cell_volume   1514.89690703
_cell_formula_units_Z   1
loop_
 _symmetry_equiv_pos_site_id
 _symmetry_equiv_pos_as_xyz
  1  'x, y, z'
loop_
 _atom_site_type_symbol
 _atom_site_label
 _atom_site_symmetry_multiplicity
 _atom_site_fract_x
 _atom_site_fract_y
 _atom_site_fract_z
 _atom_site_occupancy
  Ta  Ta0  1  -0.06529165  0.09311712  -0.10965507  1
  N  N1  1  0.17305609  0.26963451  0.31765315  1
  Zr  Zr2  1  0.05180275  -0.05987619  0.38280181  1
  C  C3  1  0.17669692  0.05877217  0.51738851  1
  Zr  Zr4  1  0.07669820  -0.05132200  0.65271617  1
  C  C5  1  0.06350883  0.20571054  0.94170011  1
  Zr  Zr6  1  -0.04759185  0.37897624  0.00357781  1
  C  C7  1  0.26048849  0.45621149  0.11191900  1
  Ta  Ta8  1  0.09309329  0.37991733  0.21228761  1
  N  N9  1  0.30256802  0.53142793  0.42251596  1
  Zr  Zr10  1  0.05306303  0.32357262  0.77376718  1
  C  C11  1  0.10969488  0.45631624  0.90628775  1
  Ta  Ta12  1  0.12323431  0.57318406  0.05527907  1
  N  N13  1  0.02320682  0.84333361  0.22545119  1
  Zr  Zr14  1  -0.01456374  0.67045219  0.29395323  1
  C  C15  1  0.02863331  0.80272112  0.51472082  1
  Ta  Ta16  1  -0.14238098  0.85145728  0.56108194  1
  N  N17  1  0.25195104  0.83995054  0.69427606  1
  Zr  Zr18  1  0.41660939  0.09541719  -0.08200269  1
  C  C19  1  0.59481286  0.14007981  -0.04539538  1
  Ta  Ta20  1  0.26441569  0.15311732  0.39452423  1
  N  N21  1  0.39018031  0.25758748  0.43875060  1
  Zr  Zr22  1  0.34325319  -0.01737881  0.64621027  1
  C  C23  1  0.58510362  0.22444310  0.86376607  1
  Ta  Ta24  1  0.21074565  0.29644764  0.00250028  1
  N  N25  1  0.50876114  0.44616562  0.31431030  1
  Zr  Zr26  1  0.32340917  0.40629340  0.29460188  1
  C  C27  1  0.56369312  0.46554782  0.55987195  1
  Ta  Ta28  1  0.18491463  0.11474647  0.82904659  1
  N  N29  1  0.51088283  0.67153540  0.78594359  1
  Ta  Ta30  1  0.29054178  0.49155694  -0.08959870  1
  N  N31  1  0.53253632  0.84940956  0.02792651  1
  Ta  Ta32  1  0.45527576  0.57972057  0.43707879  1
  N  N33  1  0.46196756  0.70304678  0.56311600  1
  Zr  Zr34  1  0.34031800  0.68695058  0.70283364  1
  C  C35  1  0.47308494  0.96791806  0.78446339  1
  Zr  Zr36  1  0.66504595  -0.02413835  0.03784825  1
  C  C37  1  0.84647511  0.05895239  0.05543063  1
  Ta  Ta38  1  0.86397673  -0.11759839  0.20126615  1
  N  N39  1  0.89460324  -0.01449242  0.65377889  1
  Zr  Zr40  1  0.67012449  0.05058095  0.76579428  1
  C  C41  1  0.82255193  0.20648537  0.79286662  1
  Ta  Ta42  1  0.75273917  0.22402640  -0.02135966  1
  N  N43  1  0.99590505  0.52525849  0.16393161  1
  Ta  Ta44  1  0.53981347  0.34044032  0.43444889  1
  N  N45  1  0.73187761  0.71801998  0.56795468  1
  Zr  Zr46  1  0.67651892  0.33716683  0.73392810  1
  C  C47  1  0.85463442  0.32399316  0.83394386  1
  Ta  Ta48  1  0.54947603  0.82428666  -0.13109818  1
  N  N49  1  0.81948857  0.71649456  0.23169001  1
  Zr  Zr50  1  0.71371387  0.73393251  0.38409029  1
  C  C51  1  0.83277346  0.90076476  0.38366624  1
  Ta  Ta52  1  0.59889980  0.63300931  0.64132322  1
  N  N53  1  0.70300848  0.90665573  0.86482651  1
