# generated using pymatgen
data_C29N3
_symmetry_space_group_name_H-M   'P 1'
_cell_length_a   19.28406196
_cell_length_b   19.28353770
_cell_length_c   19.24557418
_cell_angle_alpha   89.99931677
_cell_angle_beta   89.99995878
_cell_angle_gamma   90.00022504
_symmetry_Int_Tables_number   1
_chemical_formula_structural   C29N3
_chemical_formula_sum   'C58 N6'
_cell_volume   7156.75420763
_cell_formula_units_Z   2
loop_
 _symmetry_equiv_pos_site_id
 _symmetry_equiv_pos_as_xyz
  1  'x, y, z'
loop_
 _atom_site_type_symbol
 _atom_site_label
 _atom_site_symmetry_multiplicity
 _atom_site_fract_x
 _atom_site_fract_y
 _atom_site_fract_z
 _atom_site_occupancy
  C  C0  1  0.00005138  -0.00003447  0.00006686  1
  C  C1  1  -0.00000462  -0.00006968  0.24993778  1
  C  C2  1  0.00011067  -0.00008034  0.49993482  1
  C  C3  1  -0.00000432  0.00365919  0.75006283  1
  C  C4  1  0.00007984  0.24991861  -0.00352143  1
  C  C5  1  -0.00000481  0.25000346  0.24999866  1
  C  C6  1  0.00005781  0.24999186  0.50352088  1
  N  N7  1  -0.00000659  0.25000532  0.75000064  1
  C  C8  1  -0.00367919  0.50000523  0.00006362  1
  C  C9  1  0.00017925  0.50006928  0.25000023  1
  C  C10  1  -0.00363611  0.50008536  0.49993640  1
  C  C11  1  0.00019696  0.49634202  0.74999885  1
  C  C12  1  0.00014968  0.75004349  0.00010124  1
  C  C13  1  -0.00000106  0.74999585  0.25004828  1
  C  C14  1  0.00006006  0.75001136  0.49989444  1
  C  C15  1  0.00000643  0.74999686  0.74996015  1
  C  C16  1  0.24983781  0.00009097  -0.00003722  1
  C  C17  1  0.24993607  -0.00001335  0.24990909  1
  C  C18  1  0.25359151  -0.00001104  0.50001484  1
  C  C19  1  0.24989370  0.00001216  0.75009461  1
  C  C20  1  0.25003573  0.24994582  0.00006751  1
  C  C21  1  0.25007157  0.25000206  0.25000133  1
  C  C22  1  0.25002202  0.25000998  0.49993368  1
  C  C23  1  0.24633921  0.25000591  0.74999986  1
  C  C24  1  0.24982005  0.49994370  -0.00002555  1
  C  C25  1  0.25000936  0.50001349  0.24998455  1
  C  C26  1  0.24990740  0.50001027  0.50001845  1
  C  C27  1  0.24998912  0.49999315  0.75002765  1
  C  C28  1  0.25088433  0.75008049  0.00195256  1
  C  C29  1  0.24982246  0.74999704  0.25060624  1
  C  C30  1  0.24970676  0.74999172  0.49938728  1
  C  C31  1  0.25091864  0.74999650  0.74802689  1
  C  C32  1  0.49991876  -0.00083583  0.00269411  1
  C  C33  1  0.50000410  0.00011717  0.25421259  1
  N  N34  1  0.49995854  0.00008910  0.49953674  1
  C  C35  1  0.50000402  -0.00148326  0.74417026  1
  C  C36  1  0.49995724  0.24997023  0.00008415  1
  C  C37  1  0.50000562  0.25005932  0.24996250  1
  C  C38  1  0.49996505  0.24622626  0.49986246  1
  C  C39  1  0.50000565  0.25005205  0.74999404  1
  C  C40  1  0.50371024  0.50091740  0.00199192  1
  C  C41  1  0.49980307  0.49986570  0.25060924  1
  C  C42  1  0.50361384  0.49954368  0.49950348  1
  C  C43  1  0.49980664  0.50101243  0.74812307  1
  N  N44  1  0.49995256  0.75018932  -0.09620614  1
  C  C45  1  0.50000813  0.75004956  0.23279597  1
  C  C46  1  0.49994446  0.75374567  0.51670972  1
  N  N47  1  0.49997571  0.75035675  0.84601537  1
  C  C48  1  0.75012580  0.00018141  -0.00002941  1
  C  C49  1  0.75006426  -0.00000827  0.24990874  1
  C  C50  1  0.74646209  -0.00001893  0.50001079  1
  C  C51  1  0.75010622  0.00001586  0.75009666  1
  C  C52  1  0.74999354  0.25367560  0.00006399  1
  C  C53  1  0.74992910  0.24981807  0.25000073  1
  C  C54  1  0.74994949  0.25376776  0.49993695  1
  C  C55  1  0.75366184  0.24980446  0.74999993  1
  N  N56  1  0.75001718  0.49998128  -0.00002791  1
  C  C57  1  0.74998255  0.50001707  0.24996716  1
  N  N58  1  0.75003913  0.50000527  0.50002483  1
  C  C59  1  0.75001710  0.49998256  0.75005451  1
  C  C60  1  0.74913359  0.74629019  0.00198205  1
  C  C61  1  0.75018632  0.75019905  0.25062496  1
  C  C62  1  0.75027604  0.74620737  0.49938460  1
  C  C63  1  0.74908100  0.75019343  0.74797592  1
