# generated using pymatgen
data_Zr5Ta22C5N22
_symmetry_space_group_name_H-M   'P 1'
_cell_length_a   11.69960697
_cell_length_b   11.69886224
_cell_length_c   11.65271090
_cell_angle_alpha   90.18984535
_cell_angle_beta   89.86581166
_cell_angle_gamma   90.69370982
_symmetry_Int_Tables_number   1
_chemical_formula_structural   Zr5Ta22C5N22
_chemical_formula_sum   'Zr5 Ta22 C5 N22'
_cell_volume   1594.80101728
_cell_formula_units_Z   1
loop_
 _symmetry_equiv_pos_site_id
 _symmetry_equiv_pos_as_xyz
  1  'x, y, z'
loop_
 _atom_site_type_symbol
 _atom_site_label
 _atom_site_symmetry_multiplicity
 _atom_site_fract_x
 _atom_site_fract_y
 _atom_site_fract_z
 _atom_site_occupancy
  Ta  Ta0  1  -0.02472066  0.10132438  -0.02741476  1
  N  N1  1  0.18060722  0.12027696  0.18117777  1
  Zr  Zr2  1  0.01628861  0.05542876  0.52109654  1
  C  C3  1  0.10043625  0.16932757  0.39110336  1
  Ta  Ta4  1  -0.12194454  0.00130104  0.72702632  1
  N  N5  1  0.08030948  0.21741107  0.90535428  1
  Ta  Ta6  1  0.04613550  0.38626117  -0.09732457  1
  N  N7  1  0.15770102  0.47347004  0.18564430  1
  Ta  Ta8  1  0.05763152  0.22047797  0.21424343  1
  N  N9  1  0.28484945  0.42761328  0.42253700  1
  Ta  Ta10  1  -0.02755826  0.22422795  0.75374847  1
  N  N11  1  0.14480356  0.54092305  0.94034220  1
  Ta  Ta12  1  0.04146800  0.53642503  0.09198514  1
  N  N13  1  0.05198433  0.91199546  0.28740983  1
  Ta  Ta14  1  -0.05186864  0.79405359  0.36245099  1
  N  N15  1  0.06931758  0.91179757  0.42084907  1
  Ta  Ta16  1  -0.11462616  0.72168099  0.62965544  1
  N  N17  1  0.31367822  0.76558054  0.80362820  1
  Ta  Ta18  1  0.40088274  -0.09972751  -0.10114403  1
  N  N19  1  0.37191672  0.29922343  0.22011474  1
  Ta  Ta20  1  0.17498496  0.02326030  0.31561072  1
  N  N21  1  0.38857224  0.22421628  0.47385467  1
  Ta  Ta22  1  0.41939256  -0.17019148  0.66141009  1
  N  N23  1  0.59991864  0.11255943  0.75761013  1
  Ta  Ta24  1  0.25085971  0.45039301  0.05186066  1
  N  N25  1  0.55064794  0.61983932  0.31841678  1
  Ta  Ta26  1  0.28563043  0.26859644  0.34193422  1
  N  N27  1  0.52328023  0.45707504  0.49415673  1
  Ta  Ta28  1  0.38185205  0.37073061  0.53457725  1
  N  N29  1  0.48260721  0.59675877  0.87402458  1
  Ta  Ta30  1  0.33693296  0.66662723  -0.06063164  1
  N  N31  1  0.44153926  0.78938720  0.02066459  1
  Ta  Ta32  1  0.44518707  0.61418925  0.44938375  1
  N  N33  1  0.52189958  0.70970800  0.56357999  1
  Zr  Zr34  1  0.41690966  0.59928011  0.70384336  1
  C  C35  1  0.53938508  0.88278235  0.78554684  1
  Ta  Ta36  1  0.66443188  0.00396611  -0.13833694  1
  N  N37  1  0.93625716  0.15252318  0.12522878  1
  Ta  Ta38  1  0.79442919  -0.02837568  0.41429831  1
  N  N39  1  0.82799488  0.05856360  0.56419670  1
  Zr  Zr40  1  0.63714216  0.01444822  0.60815437  1
  C  C41  1  0.83062411  0.13222444  0.86173738  1
  Ta  Ta42  1  0.83388349  0.29132810  -0.01964994  1
  N  N43  1  0.94010557  0.41029169  0.04970348  1
  Ta  Ta44  1  0.63436955  0.48424403  0.36953118  1
  N  N45  1  0.75159297  0.56281553  0.43665783  1
  Zr  Zr46  1  0.72101530  0.24897020  0.74574379  1
  C  C47  1  0.87646592  0.37199706  0.80946983  1
  Ta  Ta48  1  0.57040238  0.73885810  -0.09154195  1
  N  N49  1  0.80829942  0.83804124  0.29399597  1
  Zr  Zr50  1  0.69068578  0.72911939  0.41566310  1
  C  C51  1  0.84022165  0.83006581  0.51376342  1
  Ta  Ta52  1  0.65412981  0.76613877  0.67979956  1
  N  N53  1  0.75105729  0.90049599  0.74325868  1
