# generated using pymatgen
data_Ta9C7N2
_symmetry_space_group_name_H-M   'P 1'
_cell_length_a   11.09615221
_cell_length_b   11.27134546
_cell_length_c   10.93882442
_cell_angle_alpha   91.16871958
_cell_angle_beta   88.75363091
_cell_angle_gamma   90.51369981
_symmetry_Int_Tables_number   1
_chemical_formula_structural   Ta9C7N2
_chemical_formula_sum   'Ta27 C21 N6'
_cell_volume   1367.44514508
_cell_formula_units_Z   3
loop_
 _symmetry_equiv_pos_site_id
 _symmetry_equiv_pos_as_xyz
  1  'x, y, z'
loop_
 _atom_site_type_symbol
 _atom_site_label
 _atom_site_symmetry_multiplicity
 _atom_site_fract_x
 _atom_site_fract_y
 _atom_site_fract_z
 _atom_site_occupancy
  Ta  Ta0  1  0.11626350  0.21143591  -0.11420524  1
  N  N1  1  0.15034703  0.06081701  -0.05574708  1
  Ta  Ta2  1  0.09568279  -0.05903374  0.43217795  1
  C  C3  1  0.09791629  0.07571030  0.57441542  1
  Ta  Ta4  1  0.00928837  -0.06191187  0.69336501  1
  C  C5  1  0.28554921  0.22765186  0.78024977  1
  Ta  Ta6  1  -0.10410181  0.36322088  -0.01031102  1
  C  C7  1  0.18510123  0.60497162  0.20116744  1
  Ta  Ta8  1  -0.08954807  0.38765874  0.30663137  1
  N  N9  1  -0.01056284  0.52790227  0.42032008  1
  Ta  Ta10  1  -0.11879816  0.32214775  0.71570281  1
  C  C11  1  0.21510850  0.51780490  0.92271244  1
  Ta  Ta12  1  0.13469633  0.45409855  0.08346901  1
  C  C13  1  0.25091803  0.85798740  0.12040057  1
  Ta  Ta14  1  0.00476083  0.61867044  0.26666525  1
  C  C15  1  0.15968591  0.84673671  0.58067600  1
  Ta  Ta16  1  0.01402052  0.71736426  0.54176966  1
  C  C17  1  0.31468466  0.78773479  0.85135372  1
  Ta  Ta18  1  0.28465469  -0.05388901  -0.03648072  1
  C  C19  1  0.51501104  0.17021758  0.21671331  1
  Ta  Ta20  1  0.38925703  -0.01165764  0.22102299  1
  C  C21  1  0.53671448  0.19132958  0.50793946  1
  Ta  Ta22  1  0.24741155  0.04951742  0.69461383  1
  C  C23  1  0.54054939  0.26692044  0.90468136  1
  Ta  Ta24  1  0.36533595  0.37473491  -0.11042826  1
  N  N25  1  0.44223303  0.57807054  0.09178373  1
  Ta  Ta26  1  0.42031800  0.22335421  0.37351404  1
  C  C27  1  0.65270476  0.49265231  0.57709114  1
  Ta  Ta28  1  0.46656361  0.15800993  0.75889149  1
  C  C29  1  0.46451561  0.50185981  0.77890868  1
  Ta  Ta30  1  0.28974619  0.66463793  0.04200203  1
  C  C31  1  0.45309921  0.99864509  0.02464705  1
  Ta  Ta32  1  0.23588670  0.77182497  0.28487916  1
  N  N33  1  0.38295822  0.85943388  0.34255351  1
  Ta  Ta34  1  0.29592628  0.60880142  0.77965087  1
  C  C35  1  0.42133102  0.73243526  0.88196442  1
  Ta  Ta36  1  0.44162278  0.17288914  0.04570106  1
  C  C37  1  0.78315512  0.24607134  0.32189392  1
  Ta  Ta38  1  0.63950018  0.11235539  0.34241189  1
  C  C39  1  0.79585950  0.20749486  0.44373881  1
  Ta  Ta40  1  0.69086277  0.15677403  0.61019761  1
  C  C41  1  0.92722500  0.19710615  0.87095786  1
  Ta  Ta42  1  0.72486265  0.19151043  -0.12055703  1
  C  C43  1  0.93242249  0.49236105  0.13549150  1
  Ta  Ta44  1  0.65150454  0.35066256  0.44712238  1
  C  C45  1  0.75861164  0.42378553  0.60794801  1
  Ta  Ta46  1  0.61546904  0.37887627  0.75393505  1
  C  C47  1  0.76591252  0.39850950  0.87012398  1
  Ta  Ta48  1  0.53149258  0.59540667  -0.05051776  1
  N  N49  1  0.96380907  0.81464011  0.37790694  1
  Ta  Ta50  1  0.80488606  0.56951036  0.47160002  1
  C  C51  1  0.87315135  0.74027475  0.38854987  1
  Ta  Ta52  1  0.57524778  0.61776058  0.68512030  1
  N  N53  1  0.90917580  0.79614486  0.65361432  1
