# generated using pymatgen
data_Zr4Ta23C8N19
_symmetry_space_group_name_H-M   'P 1'
_cell_length_a   11.26071013
_cell_length_b   11.54917909
_cell_length_c   11.63435100
_cell_angle_alpha   91.40361340
_cell_angle_beta   90.28039052
_cell_angle_gamma   90.05041902
_symmetry_Int_Tables_number   1
_chemical_formula_structural   Zr4Ta23C8N19
_chemical_formula_sum   'Zr4 Ta23 C8 N19'
_cell_volume   1512.59725685
_cell_formula_units_Z   1
loop_
 _symmetry_equiv_pos_site_id
 _symmetry_equiv_pos_as_xyz
  1  'x, y, z'
loop_
 _atom_site_type_symbol
 _atom_site_label
 _atom_site_symmetry_multiplicity
 _atom_site_fract_x
 _atom_site_fract_y
 _atom_site_fract_z
 _atom_site_occupancy
  Ta  Ta0  1  0.09549058  0.10473136  -0.09571074  1
  N  N1  1  0.27258984  0.29030377  0.30559900  1
  Ta  Ta2  1  -0.03192473  0.01503004  0.39007749  1
  C  C3  1  0.10242032  0.10714423  0.49938478  1
  Ta  Ta4  1  -0.01204998  0.06798474  0.63361416  1
  C  C5  1  0.24716300  0.11370530  0.82236676  1
  Ta  Ta6  1  0.01735971  0.34688053  0.00290987  1
  N  N7  1  0.12763186  0.42381444  0.18220086  1
  Ta  Ta8  1  0.12579836  0.26991311  0.22318869  1
  N  N9  1  0.26949526  0.54960556  0.41724176  1
  Ta  Ta10  1  0.00684724  0.28394091  0.74940345  1
  N  N11  1  0.22102060  0.57723220  0.86057263  1
  Ta  Ta12  1  -0.12594126  0.51258871  0.01298307  1
  N  N13  1  0.10245528  0.92013755  0.32799153  1
  Ta  Ta14  1  0.05253751  0.78442416  0.42434614  1
  C  C15  1  0.12014620  0.86759417  0.56780771  1
  Ta  Ta16  1  -0.07326655  0.84650511  0.61218143  1
  N  N17  1  0.25030200  0.83229297  0.80005214  1
  Ta  Ta18  1  0.35884238  -0.04254561  -0.11468820  1
  N  N19  1  0.43438844  0.06521922  0.01527053  1
  Ta  Ta20  1  0.22236760  -0.00717078  0.44907289  1
  N  N21  1  0.32690659  0.04283147  0.59024195  1
  Ta  Ta22  1  0.20687332  -0.02906436  0.69626790  1
  C  C23  1  0.49496706  0.19968773  0.78925257  1
  Ta  Ta24  1  0.35403599  0.20263551  -0.06093295  1
  N  N25  1  0.46578030  0.50921779  0.28523431  1
  Ta  Ta26  1  0.29183397  0.45691674  0.27926021  1
  N  N27  1  0.52450163  0.51072717  0.52907901  1
  Ta  Ta28  1  0.32360775  0.20681804  0.69070567  1
  N  N29  1  0.46400174  0.68149136  0.83500614  1
  Ta  Ta30  1  0.29755341  0.69876734  -0.09198649  1
  N  N31  1  0.59809513  0.77474653  0.38389145  1
  Ta  Ta32  1  0.42545821  0.62096326  0.43130146  1
  N  N33  1  0.49067789  0.72493476  0.55537864  1
  Zr  Zr34  1  0.40307914  0.79272417  0.68735631  1
  C  C35  1  0.51229674  0.92611219  0.78990063  1
  Ta  Ta36  1  0.57305423  0.07162859  -0.09602268  1
  N  N37  1  0.91530603  0.23375865  0.08867359  1
  Ta  Ta38  1  0.72591010  -0.14481785  0.31449146  1
  N  N39  1  0.91397061  0.23304387  0.60962465  1
  Zr  Zr40  1  0.51101920  0.05730538  0.64125262  1
  C  C41  1  0.92701612  0.10189054  0.81597243  1
  Ta  Ta42  1  0.83519341  0.18329642  -0.04704625  1
  N  N43  1  0.74071409  0.48366241  0.23177082  1
  Ta  Ta44  1  0.62583739  0.46839560  0.35245210  1
  N  N45  1  0.71542414  0.59926069  0.44064522  1
  Zr  Zr46  1  0.76407493  0.19700110  0.70758990  1
  C  C47  1  0.85776569  0.34456401  0.85843062  1
  Ta  Ta48  1  0.59800422  0.78399469  -0.13928928  1
  N  N49  1  0.81053086  0.76457774  0.19279811  1
  Zr  Zr50  1  0.83707912  0.62337519  0.28503234  1
  C  C51  1  0.86114911  0.86055040  0.44757292  1
  Ta  Ta52  1  0.63185069  0.63579793  0.58259617  1
  N  N53  1  0.69275757  0.75387320  0.73763258  1
