# generated using pymatgen
data_Zr13Ta14(C2N7)3
_symmetry_space_group_name_H-M   'P 1'
_cell_length_a   11.56179037
_cell_length_b   11.46438397
_cell_length_c   11.71270673
_cell_angle_alpha   90.68334878
_cell_angle_beta   91.11219911
_cell_angle_gamma   91.70747611
_symmetry_Int_Tables_number   1
_chemical_formula_structural   Zr13Ta14(C2N7)3
_chemical_formula_sum   'Zr13 Ta14 C6 N21'
_cell_volume   1551.40210608
_cell_formula_units_Z   1
loop_
 _symmetry_equiv_pos_site_id
 _symmetry_equiv_pos_as_xyz
  1  'x, y, z'
loop_
 _atom_site_type_symbol
 _atom_site_label
 _atom_site_symmetry_multiplicity
 _atom_site_fract_x
 _atom_site_fract_y
 _atom_site_fract_z
 _atom_site_occupancy
  Ta  Ta0  1  -0.06804163  0.08937343  -0.07174605  1
  N  N1  1  0.16491494  0.13362696  0.22004781  1
  Zr  Zr2  1  0.06875313  0.02692996  0.32359682  1
  C  C3  1  0.09113950  0.16874751  0.46595949  1
  Zr  Zr4  1  -0.02154537  0.07403306  0.58638573  1
  N  N5  1  0.04773795  0.20928967  0.91753126  1
  Zr  Zr6  1  -0.05934316  0.33052148  0.02572722  1
  N  N7  1  0.24690648  0.36636482  0.22069410  1
  Ta  Ta8  1  0.17855613  0.28487399  0.36142027  1
  N  N9  1  0.20927151  0.41865737  0.47069399  1
  Zr  Zr10  1  0.00235538  0.31187224  0.76980244  1
  N  N11  1  0.01198100  0.45548298  0.88528188  1
  Ta  Ta12  1  0.01565256  0.57573662  -0.01689731  1
  N  N13  1  -0.00237404  0.83985072  0.28054073  1
  Zr  Zr14  1  -0.04092764  0.65415330  0.25425547  1
  C  C15  1  0.16402716  0.94159624  0.48327919  1
  Ta  Ta16  1  0.02295017  0.81483326  0.46142064  1
  N  N17  1  0.30642012  0.82350327  0.79522297  1
  Zr  Zr18  1  0.44293977  -0.01785321  -0.17815897  1
  N  N19  1  0.39876654  0.21013887  0.13751679  1
  Ta  Ta20  1  0.25496899  0.10157422  0.51514615  1
  N  N21  1  0.34980349  0.22334836  0.41716681  1
  Zr  Zr22  1  0.20032212  -0.10937004  0.66524701  1
  N  N23  1  0.59765389  0.07699016  0.90126065  1
  Ta  Ta24  1  0.24176942  0.23442790  0.11550993  1
  N  N25  1  0.45272485  0.49391957  0.36180240  1
  Zr  Zr26  1  0.42523585  0.31962465  0.27985499  1
  N  N27  1  0.40548052  0.50071265  0.60498283  1
  Ta  Ta28  1  0.34771848  0.34394852  0.54806827  1
  N  N29  1  0.47793212  0.64101705  0.83469652  1
  Ta  Ta30  1  0.37758490  0.74225895  -0.07866290  1
  N  N31  1  0.49559004  0.85656831  -0.03776055  1
  Ta  Ta32  1  0.31969757  0.55550873  0.44560788  1
  N  N33  1  0.48056130  0.70331850  0.50766205  1
  Zr  Zr34  1  0.39461126  0.68600565  0.67145018  1
  C  C35  1  0.54602208  0.88974235  0.69945380  1
  Zr  Zr36  1  0.64830077  -0.05560964  0.02540730  1
  N  N37  1  0.84320455  0.15375660  0.05579635  1
  Ta  Ta38  1  0.82922499  -0.12618359  0.30725384  1
  N  N39  1  0.90619321  0.23823335  0.61840305  1
  Zr  Zr40  1  0.71701795  -0.00820002  0.76333730  1
  C  C41  1  0.81206081  0.16052832  0.81387571  1
  Ta  Ta42  1  0.70497184  0.19834219  -0.03871275  1
  N  N43  1  0.96299071  0.50488466  0.11744178  1
  Ta  Ta44  1  0.54351014  0.53887082  0.50390072  1
  N  N45  1  0.97839889  0.64730358  0.43858089  1
  Zr  Zr46  1  0.75013810  0.26294528  0.66851418  1
  C  C47  1  0.82065677  0.29142717  0.85172622  1
  Ta  Ta48  1  0.61119665  0.76303753  -0.17458525  1
  N  N49  1  0.78653311  0.71189743  0.29487773  1
  Zr  Zr50  1  0.80056035  0.65096380  0.46896766  1
  C  C51  1  0.88199259  0.94000668  0.46660743  1
  Ta  Ta52  1  0.61983899  0.79349166  0.57599244  1
  N  N53  1  0.73539220  0.86297613  0.89855492  1
