# generated using pymatgen
data_Zr8Ta19C27
_symmetry_space_group_name_H-M   'P 1'
_cell_length_a   10.54271817
_cell_length_b   10.51855529
_cell_length_c   11.00816772
_cell_angle_alpha   89.81734403
_cell_angle_beta   90.18657478
_cell_angle_gamma   90.36392820
_symmetry_Int_Tables_number   1
_chemical_formula_structural   Zr8Ta19C27
_chemical_formula_sum   'Zr8 Ta19 C27'
_cell_volume   1220.70433524
_cell_formula_units_Z   1
loop_
 _symmetry_equiv_pos_site_id
 _symmetry_equiv_pos_as_xyz
  1  'x, y, z'
loop_
 _atom_site_type_symbol
 _atom_site_label
 _atom_site_symmetry_multiplicity
 _atom_site_fract_x
 _atom_site_fract_y
 _atom_site_fract_z
 _atom_site_occupancy
  Ta  Ta0  1  -0.05412658  -0.01480025  0.00775286  1
  C  C1  1  0.15308724  0.24520591  0.05799666  1
  Zr  Zr2  1  -0.03405415  -0.05255611  0.29518564  1
  C  C3  1  0.27552066  0.18585252  0.56987244  1
  Zr  Zr4  1  -0.03441850  0.05265713  0.59430299  1
  C  C5  1  0.16607220  0.19629021  0.94089668  1
  Ta  Ta6  1  -0.03806729  0.27315253  -0.04870071  1
  C  C7  1  0.12775164  0.37538764  0.05644570  1
  Ta  Ta8  1  -0.03822317  0.24900836  0.40717768  1
  C  C9  1  0.27944606  0.51580920  0.51043211  1
  Ta  Ta10  1  -0.06244850  0.29388397  0.67481047  1
  C  C11  1  0.30913673  0.51844223  0.79770458  1
  Ta  Ta12  1  -0.05292794  0.72082112  0.09182332  1
  C  C13  1  0.06914214  0.88433061  0.13220559  1
  Zr  Zr14  1  0.02054719  0.61286454  0.34524994  1
  C  C15  1  0.24516787  0.85565214  0.53067983  1
  Ta  Ta16  1  0.04505829  0.80596745  0.54078916  1
  C  C17  1  0.29641042  0.83916167  0.81612064  1
  Ta  Ta18  1  0.40372644  -0.03733237  -0.06376298  1
  C  C19  1  0.47584354  0.25741270  -0.01853567  1
  Ta  Ta20  1  0.20114486  0.03918502  0.44568560  1
  C  C21  1  0.50688595  0.27792331  0.51061467  1
  Zr  Zr22  1  0.34778687  0.00111962  0.67339315  1
  C  C23  1  0.52509019  0.13557372  0.97129822  1
  Ta  Ta24  1  0.29436169  0.37783533  -0.06965162  1
  C  C25  1  0.49308091  0.38838666  -0.01499311  1
  Ta  Ta26  1  0.30754238  0.32700772  0.43057113  1
  C  C27  1  0.49385175  0.41412461  0.52303907  1
  Ta  Ta28  1  0.34738750  0.37054236  0.66275640  1
  C  C29  1  0.54709729  0.50249119  1.00025758  1
  Ta  Ta30  1  0.37761179  0.68246971  -0.08433374  1
  C  C31  1  0.51784969  0.81330437  0.00620869  1
  Ta  Ta32  1  0.28795179  0.68003878  0.41579496  1
  C  C33  1  0.38042959  0.84245764  0.52490218  1
  Zr  Zr34  1  0.29245364  0.67651510  0.66639333  1
  C  C35  1  0.57383824  0.83059175  0.87906784  1
  Ta  Ta36  1  0.66313406  -0.01762237  0.02447752  1
  C  C37  1  0.82152308  0.12879265  0.05294439  1
  Ta  Ta38  1  0.76717384  -0.08722133  0.48417052  1
  C  C39  1  0.79611047  0.22389869  0.52037945  1
  Zr  Zr40  1  0.66985268  -0.01887640  0.74810332  1
  C  C41  1  0.81001343  0.25936259  0.81143066  1
  Ta  Ta42  1  0.70053437  0.26880544  -0.03016769  1
  C  C43  1  0.85332193  0.55069732  0.03998982  1
  Ta  Ta44  1  0.66680503  0.37658583  0.41720132  1
  C  C45  1  0.81904322  0.36827287  0.53284852  1
  Zr  Zr46  1  0.65248369  0.27772818  0.67279265  1
  C  C47  1  0.80909071  0.43597265  1.01558644  1
  Ta  Ta48  1  0.65443697  0.66879939  0.00293555  1
  C  C49  1  0.77326729  0.83010470  0.14389886  1
  Zr  Zr50  1  0.73196819  0.70918678  0.29892047  1
  C  C51  1  0.89538522  0.76871328  0.41582910  1
  Ta  Ta52  1  0.56466327  0.78403636  0.55051572  1
  C  C53  1  0.80418415  0.83598529  1.01869211  1
