# generated using pymatgen
data_Zr27C17N10
_symmetry_space_group_name_H-M   'P 1'
_cell_length_a   10.64947075
_cell_length_b   11.19618164
_cell_length_c   10.86297756
_cell_angle_alpha   89.85412040
_cell_angle_beta   88.48820902
_cell_angle_gamma   90.22838323
_symmetry_Int_Tables_number   1
_chemical_formula_structural   Zr27C17N10
_chemical_formula_sum   'Zr27 C17 N10'
_cell_volume   1294.76415717
_cell_formula_units_Z   1
loop_
 _symmetry_equiv_pos_site_id
 _symmetry_equiv_pos_as_xyz
  1  'x, y, z'
loop_
 _atom_site_type_symbol
 _atom_site_label
 _atom_site_symmetry_multiplicity
 _atom_site_fract_x
 _atom_site_fract_y
 _atom_site_fract_z
 _atom_site_occupancy
  Zr  Zr0  1  -0.02247843  0.10848731  -0.03404982  1
  N  N1  1  0.07533040  0.23982366  0.07948874  1
  Zr  Zr2  1  -0.15525654  -0.13275760  0.35709180  1
  C  C3  1  0.21603665  0.09478295  0.54176104  1
  Zr  Zr4  1  -0.00408732  0.05091430  0.52872546  1
  C  C5  1  0.12821833  0.12735341  0.81810466  1
  Zr  Zr6  1  0.00672583  0.39784023  -0.04434947  1
  C  C7  1  0.20011667  0.55934856  0.14069165  1
  Zr  Zr8  1  -0.04834297  0.29609447  0.21941214  1
  N  N9  1  0.16314135  0.59011594  0.44895336  1
  Zr  Zr10  1  -0.02185225  0.24489095  0.72217384  1
  C  C11  1  0.04323867  0.57257644  0.87889344  1
  Zr  Zr12  1  -0.02538820  0.66418904  0.07710945  1
  N  N13  1  0.18575272  0.66631778  0.12201811  1
  Zr  Zr14  1  -0.01050618  0.65251377  0.40987788  1
  C  C15  1  0.05604433  0.86338874  0.59978436  1
  Zr  Zr16  1  0.02296157  0.71240602  0.73998882  1
  C  C17  1  0.22375553  0.76886209  0.80691244  1
  Zr  Zr18  1  0.46288050  -0.02785224  -0.12928609  1
  C  C19  1  0.66169056  0.18123351  0.12040452  1
  Zr  Zr20  1  0.41043919  0.05282647  0.49803110  1
  C  C21  1  0.52856981  0.20013832  0.41649274  1
  Zr  Zr22  1  0.19926956  -0.04640249  0.70918623  1
  C  C23  1  0.54098009  0.12157828  0.76216907  1
  Zr  Zr24  1  0.23859886  0.20034371  -0.02631858  1
  N  N25  1  0.56206110  0.49522997  0.33467254  1
  Zr  Zr26  1  0.40127897  0.35250895  0.47001790  1
  C  C27  1  0.45139786  0.52654062  0.36879236  1
  Zr  Zr28  1  0.28831255  0.20747179  0.69877284  1
  N  N29  1  0.58602785  0.63497759  0.77202882  1
  Zr  Zr30  1  0.23381931  0.60531983  -0.07770914  1
  N  N31  1  0.63320789  0.88051320  0.30985838  1
  Zr  Zr32  1  0.32298832  0.67025029  0.43055491  1
  N  N33  1  0.51041483  0.72659658  0.52768285  1
  Zr  Zr34  1  0.42929427  0.70723699  0.70288792  1
  C  C35  1  0.32408492  0.83569233  0.84627556  1
  Zr  Zr36  1  0.70035517  0.11185234  -0.08361858  1
  C  C37  1  0.77622154  0.20178632  0.17422971  1
  Zr  Zr38  1  0.64041686  0.05321844  0.30407929  1
  C  C39  1  0.79595733  0.04527440  0.45420304  1
  Zr  Zr40  1  0.68186633  0.01530988  0.62501292  1
  C  C41  1  0.85461411  0.26014631  0.88243944  1
  Zr  Zr42  1  0.71634836  0.35456081  0.00264068  1
  C  C43  1  0.88104207  0.45593704  0.12322219  1
  Zr  Zr44  1  0.63284723  0.32187053  0.29213193  1
  N  N45  1  0.77830012  0.67539224  0.45756604  1
  Zr  Zr46  1  0.59698894  0.27914805  0.66913208  1
  C  C47  1  0.81576774  0.53258461  1.04552325  1
  Zr  Zr48  1  0.72384892  0.64644294  -0.10114284  1
  N  N49  1  0.93829126  0.74039111  0.24206989  1
  Zr  Zr50  1  0.61593167  0.70969346  0.36202983  1
  C  C51  1  0.98909526  0.83792821  0.50007412  1
  Zr  Zr52  1  0.70824890  0.72344190  0.62791032  1
  N  N53  1  0.83513159  0.73366966  0.77539484  1
