# generated using pymatgen
data_Zr4Ta23C13N14
_symmetry_space_group_name_H-M   'P 1'
_cell_length_a   11.25771459
_cell_length_b   11.33775189
_cell_length_c   11.27858168
_cell_angle_alpha   88.40213829
_cell_angle_beta   91.32080135
_cell_angle_gamma   89.82951135
_symmetry_Int_Tables_number   1
_chemical_formula_structural   Zr4Ta23C13N14
_chemical_formula_sum   'Zr4 Ta23 C13 N14'
_cell_volume   1438.61477080
_cell_formula_units_Z   1
loop_
 _symmetry_equiv_pos_site_id
 _symmetry_equiv_pos_as_xyz
  1  'x, y, z'
loop_
 _atom_site_type_symbol
 _atom_site_label
 _atom_site_symmetry_multiplicity
 _atom_site_fract_x
 _atom_site_fract_y
 _atom_site_fract_z
 _atom_site_occupancy
  Ta  Ta0  1  -0.06699376  0.10247903  -0.07122644  1
  N  N1  1  0.28894754  0.13645877  0.24525198  1
  Ta  Ta2  1  -0.06565167  0.03130386  0.26959061  1
  C  C3  1  0.06137478  0.14876350  0.38305444  1
  Ta  Ta4  1  0.01480891  0.04832967  0.53990315  1
  C  C5  1  0.08453911  0.20386874  0.90766148  1
  Ta  Ta6  1  -0.00777778  0.35536482  0.01893041  1
  C  C7  1  0.14616315  0.50036018  0.04342298  1
  Ta  Ta8  1  0.12320681  0.23097790  0.23114855  1
  N  N9  1  0.24360604  0.62440115  0.47669950  1
  Ta  Ta10  1  -0.01065653  0.32583075  0.76038836  1
  C  C11  1  0.14646544  0.31258553  0.88861296  1
  Ta  Ta12  1  -0.02608181  0.59314936  0.01247724  1
  N  N13  1  0.08715182  0.92870440  0.27201631  1
  Ta  Ta14  1  0.06816342  0.81578275  0.40829070  1
  C  C15  1  0.18025951  0.91161704  0.52414540  1
  Ta  Ta16  1  0.09956992  0.80971143  0.67374341  1
  N  N17  1  0.16258652  0.65879003  0.74451294  1
  Ta  Ta18  1  0.47191570  0.17125199  -0.10717618  1
  C  C19  1  0.55927612  0.16300424  0.05628652  1
  Ta  Ta20  1  0.20681247  0.03315784  0.36463958  1
  N  N21  1  0.50397710  0.23820129  0.40083776  1
  Ta  Ta22  1  0.27303538  0.00699619  0.66451599  1
  C  C23  1  0.65642495  0.10951397  0.85538308  1
  Ta  Ta24  1  0.25841394  0.34348449  0.03693190  1
  N  N25  1  0.42527740  0.45245910  0.30580755  1
  Ta  Ta26  1  0.37551198  0.28133870  0.30398995  1
  C  C27  1  0.45414307  0.49408305  0.56011180  1
  Ta  Ta28  1  0.25088357  0.23130537  0.76545144  1
  N  N29  1  0.48735607  0.71238817  0.69549383  1
  Ta  Ta30  1  0.15448151  0.50779224  -0.15094904  1
  N  N31  1  0.63542172  0.73605394  0.15904989  1
  Ta  Ta32  1  0.38716057  0.59810709  0.39934558  1
  N  N33  1  0.52970897  0.71425020  0.43825704  1
  Zr  Zr34  1  0.32377223  0.61243898  0.65317596  1
  C  C35  1  0.39087212  1.01449705  0.81656459  1
  Ta  Ta36  1  0.68439990  0.02379276  0.03611598  1
  C  C37  1  0.85031745  0.11987664  0.09940095  1
  Ta  Ta38  1  0.80763516  -0.09930125  0.45964375  1
  N  N39  1  0.85215173  0.06045519  0.44205610  1
  Zr  Zr40  1  0.57604681  -0.06199019  0.78493835  1
  C  C41  1  0.84740823  0.25814017  0.84239318  1
  Ta  Ta42  1  0.73061498  0.25049944  -0.01280541  1
  N  N43  1  0.88987047  0.48521774  0.10177169  1
  Ta  Ta44  1  0.55744875  0.40409942  0.44087342  1
  N  N45  1  0.68335374  0.51422347  0.41290727  1
  Zr  Zr46  1  0.70091013  0.22478014  0.70856860  1
  C  C47  1  0.96835179  0.48937547  0.85449819  1
  Ta  Ta48  1  0.75271277  0.77805007  0.05930790  1
  N  N49  1  0.85670898  0.86620581  0.30082067  1
  Zr  Zr50  1  0.68044461  0.68188307  0.33197821  1
  C  C51  1  0.94734437  0.84561031  0.56417733  1
  Ta  Ta52  1  0.57897313  0.63248243  0.58776318  1
  N  N53  1  0.66118075  0.86779656  0.93924940  1
