# generated using pymatgen
data_Zr8Ta19(C2N7)3
_symmetry_space_group_name_H-M   'P 1'
_cell_length_a   11.61378108
_cell_length_b   11.63555242
_cell_length_c   11.74938823
_cell_angle_alpha   90.36689833
_cell_angle_beta   90.46236678
_cell_angle_gamma   90.96352138
_symmetry_Int_Tables_number   1
_chemical_formula_structural   Zr8Ta19(C2N7)3
_chemical_formula_sum   'Zr8 Ta19 C6 N21'
_cell_volume   1587.41710055
_cell_formula_units_Z   1
loop_
 _symmetry_equiv_pos_site_id
 _symmetry_equiv_pos_as_xyz
  1  'x, y, z'
loop_
 _atom_site_type_symbol
 _atom_site_label
 _atom_site_symmetry_multiplicity
 _atom_site_fract_x
 _atom_site_fract_y
 _atom_site_fract_z
 _atom_site_occupancy
  Ta  Ta0  1  -0.10678762  0.09240800  -0.03644450  1
  N  N1  1  0.14590965  0.23137987  0.24147773  1
  Zr  Zr2  1  -0.07561373  -0.05538478  0.34076203  1
  C  C3  1  0.05727638  0.06439342  0.42692201  1
  Zr  Zr4  1  0.01885790  0.01649261  0.60472151  1
  N  N5  1  0.00768387  0.13867925  0.84805449  1
  Ta  Ta6  1  0.05919362  0.29272209  -0.05848768  1
  N  N7  1  0.06231321  0.49090958  0.19815452  1
  Ta  Ta8  1  0.01923961  0.31772631  0.19186023  1
  N  N9  1  0.33998530  0.31904770  0.41867001  1
  Ta  Ta10  1  -0.11474845  0.23220183  0.76559652  1
  N  N11  1  0.14675382  0.43745882  0.97532887  1
  Ta  Ta12  1  -0.03185435  0.51280499  0.03215669  1
  N  N13  1  0.07180615  0.81716898  0.33408153  1
  Zr  Zr14  1  -0.01087691  0.66322629  0.25867714  1
  C  C15  1  0.16265981  0.86503542  0.58093180  1
  Ta  Ta16  1  0.02567026  0.76589631  0.50830219  1
  N  N17  1  0.32103390  0.83047869  0.80563530  1
  Ta  Ta18  1  0.43374424  -0.10501860  -0.09491469  1
  N  N19  1  0.33316549  0.37740954  0.16257944  1
  Ta  Ta20  1  0.17301654  -0.06158702  0.40403613  1
  N  N21  1  0.50858972  0.31000963  0.62761947  1
  Zr  Zr22  1  0.32374427  -0.06064750  0.65825023  1
  N  N23  1  0.61203193  0.06845480  0.69306009  1
  Ta  Ta24  1  0.21334066  0.48189667  0.11638776  1
  N  N25  1  0.62485369  0.51578524  0.24713513  1
  Ta  Ta26  1  0.30334540  0.26215411  0.26826860  1
  N  N27  1  0.51444344  0.52311679  0.48346551  1
  Ta  Ta28  1  0.41434078  0.40510225  0.54425228  1
  N  N29  1  0.49174145  0.59079339  0.87918784  1
  Ta  Ta30  1  0.37488114  0.65079770  -0.02676709  1
  N  N31  1  0.45395114  0.78824283  0.03647672  1
  Ta  Ta32  1  0.27973796  0.73459332  0.51662554  1
  N  N33  1  0.41487152  0.80696419  0.57089342  1
  Zr  Zr34  1  0.44529696  0.70102928  0.72387314  1
  C  C35  1  0.56901092  0.83650387  0.80185809  1
  Ta  Ta36  1  0.67469727  -0.00635391  -0.17022529  1
  N  N37  1  0.94868106  0.21210650  0.07437379  1
  Ta  Ta38  1  0.77043692  -0.23809356  0.44356616  1
  N  N39  1  0.87223190  0.13336590  0.63395051  1
  Zr  Zr40  1  0.75118994  0.01116582  0.58037388  1
  C  C41  1  0.74546093  0.16937764  0.88629404  1
  Ta  Ta42  1  0.80169017  0.31318012  -0.00613204  1
  N  N43  1  0.86332960  0.59701771  0.12618286  1
  Ta  Ta44  1  0.64985006  0.48465971  0.39692512  1
  N  N45  1  0.76884171  0.59833938  0.42578791  1
  Zr  Zr46  1  0.60535433  0.22972803  0.75780846  1
  C  C47  1  0.91444462  0.39616155  0.88361968  1
  Ta  Ta48  1  0.60250725  0.72071199  -0.05750022  1
  N  N49  1  0.83122779  0.78364449  0.28934213  1
  Zr  Zr50  1  0.71808865  0.65844347  0.20024295  1
  C  C51  1  0.89124762  0.88375863  0.53249669  1
  Ta  Ta52  1  0.71179671  0.77689468  0.71000594  1
  N  N53  1  0.79631380  0.91764599  0.74419943  1
