# generated using pymatgen
data_Zr13Ta14(C2N)9
_symmetry_space_group_name_H-M   'P 1'
_cell_length_a   11.08300054
_cell_length_b   11.29759709
_cell_length_c   11.23133689
_cell_angle_alpha   90.06159859
_cell_angle_beta   87.10762791
_cell_angle_gamma   89.68359563
_symmetry_Int_Tables_number   1
_chemical_formula_structural   Zr13Ta14(C2N)9
_chemical_formula_sum   'Zr13 Ta14 C18 N9'
_cell_volume   1404.47580558
_cell_formula_units_Z   1
loop_
 _symmetry_equiv_pos_site_id
 _symmetry_equiv_pos_as_xyz
  1  'x, y, z'
loop_
 _atom_site_type_symbol
 _atom_site_label
 _atom_site_symmetry_multiplicity
 _atom_site_fract_x
 _atom_site_fract_y
 _atom_site_fract_z
 _atom_site_occupancy
  Ta  Ta0  1  -0.04542092  0.07319090  -0.08399487  1
  N  N1  1  0.15416238  0.18269044  0.04114894  1
  Zr  Zr2  1  -0.17441670  -0.03166190  0.53514346  1
  C  C3  1  0.29126792  0.06450668  0.52891779  1
  Zr  Zr4  1  0.09135155  0.09034570  0.57684737  1
  C  C5  1  0.13216415  0.10900886  0.76975282  1
  Zr  Zr6  1  0.01591892  0.30021718  0.07621736  1
  C  C7  1  -0.01352370  0.51338563  0.19945081  1
  Ta  Ta8  1  -0.24421580  0.31578556  0.18341836  1
  N  N9  1  0.29915623  0.54663268  0.46733490  1
  Zr  Zr10  1  0.04428487  0.29468545  0.76692034  1
  C  C11  1  0.04689376  0.43345788  0.91438414  1
  Ta  Ta12  1  -0.02930850  0.56604241  0.02122028  1
  N  N13  1  0.03079109  0.79875954  0.13922003  1
  Zr  Zr14  1  -0.06642724  0.72139904  0.25924579  1
  C  C15  1  0.00895495  0.91455005  0.56748996  1
  Ta  Ta16  1  0.11594731  0.79790011  0.62420192  1
  C  C17  1  0.13577637  0.85083986  0.79183890  1
  Zr  Zr18  1  0.47486019  -0.06006156  -0.05462796  1
  C  C19  1  0.58344688  0.15006119  0.28444245  1
  Ta  Ta20  1  0.47400108  0.08765222  0.47048894  1
  C  C21  1  0.48863210  0.25372341  0.55780994  1
  Zr  Zr22  1  0.30632033  -0.03804454  0.71112885  1
  C  C23  1  0.57546432  0.10845871  0.89339674  1
  Ta  Ta24  1  0.24621920  0.15235199  -0.09758990  1
  N  N25  1  0.51599452  0.72246785  0.25596678  1
  Zr  Zr26  1  0.35343192  0.37349579  0.44998626  1
  C  C27  1  0.54413691  0.44779921  0.39000551  1
  Ta  Ta28  1  0.31926100  0.21264073  0.65503567  1
  N  N29  1  0.49432635  0.53238631  0.68183809  1
  Ta  Ta30  1  0.24771391  0.77282529  -0.10415345  1
  C  C31  1  0.60823458  0.91646024  0.08986062  1
  Ta  Ta32  1  0.44095887  0.60742680  0.37754717  1
  N  N33  1  0.50356873  0.70393220  0.50122175  1
  Zr  Zr34  1  0.38788470  0.66662736  0.64820196  1
  C  C35  1  0.40850693  0.80843772  0.80266027  1
  Zr  Zr36  1  0.64258949  0.10290007  0.08052386  1
  C  C37  1  0.83871895  0.17833998  0.06454014  1
  Ta  Ta38  1  0.76931682  0.06812619  0.30868314  1
  C  C39  1  0.79706589  0.16089432  0.46494573  1
  Zr  Zr40  1  0.72411624  0.03230987  0.78927220  1
  C  C41  1  0.87007953  0.17724830  0.77830736  1
  Ta  Ta42  1  0.77712403  0.28202207  -0.08493921  1
  C  C43  1  0.89748501  0.43064785  0.20567986  1
  Ta  Ta44  1  0.62894599  0.27781965  0.41340445  1
  N  N45  1  0.73092138  0.62152456  0.52150146  1
  Zr  Zr46  1  0.80431050  0.26968212  0.61938025  1
  C  C47  1  0.92261815  0.40037200  0.91633099  1
  Ta  Ta48  1  0.61648215  0.74318161  0.11850381  1
  N  N49  1  0.76096685  0.70797103  0.18914907  1
  Zr  Zr50  1  0.67523668  0.74196563  0.39994854  1
  C  C51  1  0.81644240  0.89105984  0.36355577  1
  Ta  Ta52  1  0.61676046  0.50210079  0.56144289  1
  N  N53  1  0.84450036  0.95145713  0.89779169  1
