# generated using pymatgen
data_Zr2Ta7(C2N)3
_symmetry_space_group_name_H-M   'P 1'
_cell_length_a   11.32232813
_cell_length_b   11.34215053
_cell_length_c   11.44525428
_cell_angle_alpha   89.44775311
_cell_angle_beta   88.87865163
_cell_angle_gamma   88.83372773
_symmetry_Int_Tables_number   1
_chemical_formula_structural   Zr2Ta7(C2N)3
_chemical_formula_sum   'Zr6 Ta21 C18 N9'
_cell_volume   1469.14572533
_cell_formula_units_Z   3
loop_
 _symmetry_equiv_pos_site_id
 _symmetry_equiv_pos_as_xyz
  1  'x, y, z'
loop_
 _atom_site_type_symbol
 _atom_site_label
 _atom_site_symmetry_multiplicity
 _atom_site_fract_x
 _atom_site_fract_y
 _atom_site_fract_z
 _atom_site_occupancy
  Ta  Ta0  1  0.05145264  0.08799531  -0.05812007  1
  N  N1  1  0.13128796  0.22950282  0.02001076  1
  Zr  Zr2  1  -0.06610057  0.01941754  0.42738662  1
  C  C3  1  0.33047654  0.00858694  0.63712119  1
  Ta  Ta4  1  0.14519092  0.05876396  0.61230946  1
  C  C5  1  0.13827033  0.14383443  0.77986872  1
  Ta  Ta6  1  -0.02160646  0.32052395  0.00934019  1
  C  C7  1  0.02435439  0.50254086  0.08375786  1
  Ta  Ta8  1  -0.17951620  0.37028744  0.24950785  1
  N  N9  1  0.26308160  0.69330171  0.52598597  1
  Ta  Ta10  1  -0.03357738  0.22976542  0.75941819  1
  C  C11  1  0.24324021  0.51296658  0.89687063  1
  Ta  Ta12  1  0.06212294  0.54079019  -0.09529759  1
  N  N13  1  0.02783093  0.84525510  0.29309526  1
  Zr  Zr14  1  -0.08975194  0.74269811  0.34167421  1
  C  C15  1  0.05218578  0.91680691  0.54991236  1
  Ta  Ta16  1  0.11450166  0.74931717  0.58920953  1
  C  C17  1  0.17278681  0.75065354  0.74965034  1
  Ta  Ta18  1  0.40759583  -0.09506982  0.01220839  1
  C  C19  1  0.62595610  0.09880047  0.14046620  1
  Ta  Ta20  1  0.37013744  0.05691780  0.46237587  1
  C  C21  1  0.50914318  0.17445652  0.50004519  1
  Ta  Ta22  1  0.28573567  0.00944298  0.81948611  1
  C  C23  1  0.44247750  0.06665476  0.89386591  1
  Ta  Ta24  1  0.19496472  0.30955285  -0.12638092  1
  N  N25  1  0.54921869  0.66395864  0.24084478  1
  Ta  Ta26  1  0.40880203  0.32445487  0.45040032  1
  C  C27  1  0.52018274  0.45349859  0.51006557  1
  Ta  Ta28  1  0.39652459  0.18440676  0.67007962  1
  N  N29  1  0.49222590  0.65404079  0.69584254  1
  Ta  Ta30  1  0.24281037  0.71804625  -0.10046769  1
  C  C31  1  0.57587268  0.84397104  0.04489328  1
  Ta  Ta32  1  0.39669076  0.60247209  0.45955571  1
  N  N33  1  0.49958224  0.72508355  0.48795101  1
  Zr  Zr34  1  0.37963493  0.79181546  0.66338020  1
  C  C35  1  0.37722371  0.83054099  0.85650100  1
  Ta  Ta36  1  0.63258752  0.00182311  -0.04226735  1
  C  C37  1  0.84073619  0.18679502  0.26802013  1
  Ta  Ta38  1  0.73385343  0.01669653  0.27529867  1
  C  C39  1  0.75618864  0.15220709  0.45389398  1
  Zr  Zr40  1  0.63738245  0.01494360  0.53317566  1
  C  C41  1  0.88043355  0.17980815  0.91800401  1
  Ta  Ta42  1  0.78025802  0.18017472  0.08480445  1
  C  C43  1  0.96177178  0.45122527  0.16720996  1
  Ta  Ta44  1  0.62475675  0.21601845  0.32688558  1
  N  N45  1  0.73018992  0.64766016  0.48168146  1
  Zr  Zr46  1  0.64369903  0.30081848  0.57437934  1
  C  C47  1  1.01734905  0.38926057  0.82519622  1
  Ta  Ta48  1  0.65066138  0.69250310  0.11897357  1
  N  N49  1  0.78376109  0.72957577  0.20547207  1
  Zr  Zr50  1  0.64210516  0.76161895  0.37262921  1
  C  C51  1  0.78050984  0.89685340  0.41715539  1
  Ta  Ta52  1  0.60734231  0.59269003  0.58806045  1
  N  N53  1  0.75540468  0.95327503  0.87861264  1
