# generated using pymatgen
data_Zr9CN8
_symmetry_space_group_name_H-M   'P 1'
_cell_length_a   11.11058483
_cell_length_b   10.13199514
_cell_length_c   11.12592674
_cell_angle_alpha   89.99999481
_cell_angle_beta   89.99982988
_cell_angle_gamma   89.99986183
_symmetry_Int_Tables_number   1
_chemical_formula_structural   Zr9CN8
_chemical_formula_sum   'Zr27 C3 N24'
_cell_volume   1252.47218044
_cell_formula_units_Z   3
loop_
 _symmetry_equiv_pos_site_id
 _symmetry_equiv_pos_as_xyz
  1  'x, y, z'
loop_
 _atom_site_type_symbol
 _atom_site_label
 _atom_site_symmetry_multiplicity
 _atom_site_fract_x
 _atom_site_fract_y
 _atom_site_fract_z
 _atom_site_occupancy
  Zr  Zr0  1  -0.08225225  0.12092531  -0.03710604  1
  N  N1  1  0.18658104  0.14864588  0.26477145  1
  Zr  Zr2  1  0.05431474  0.02169832  0.33335190  1
  N  N3  1  0.18659859  0.14868669  0.40191261  1
  Zr  Zr4  1  -0.08223984  0.12090792  0.70369372  1
  N  N5  1  0.04589953  0.19009883  0.83330798  1
  Zr  Zr6  1  0.11457143  0.33333457  -0.03701191  1
  N  N7  1  0.18655851  0.51803061  0.26477100  1
  Zr  Zr8  1  -0.10364307  0.33333416  0.33352740  1
  N  N9  1  0.18659123  0.51797518  0.40191816  1
  Zr  Zr10  1  0.11454763  0.33333527  0.70362599  1
  N  N11  1  0.04589837  0.47656851  0.83330880  1
  Zr  Zr12  1  -0.08225293  0.54574129  -0.03710480  1
  N  N13  1  0.13950874  0.83330135  0.27126070  1
  Zr  Zr14  1  0.05433094  0.64494281  0.33332486  1
  N  N15  1  0.13958554  0.83333742  0.39537312  1
  Zr  Zr16  1  -0.08224324  0.54575981  0.70369549  1
  N  N17  1  0.22996867  0.83322975  0.83331138  1
  Zr  Zr18  1  0.40075113  -0.00757811  -0.02400700  1
  N  N19  1  0.44971826  0.19056458  0.26565827  1
  Zr  Zr20  1  0.33726382  0.03823223  0.33334715  1
  N  N21  1  0.44972526  0.19056894  0.40101349  1
  Zr  Zr22  1  0.40075877  -0.00758294  0.69068423  1
  N  N23  1  0.51316235  0.04234635  0.83332396  1
  Zr  Zr24  1  0.40870634  0.33334472  -0.04411867  1
  N  N25  1  0.44970194  0.47611373  0.26565765  1
  Zr  Zr26  1  0.28226854  0.33333871  0.33330879  1
  N  N27  1  0.44971502  0.47611219  0.40101203  1
  Zr  Zr28  1  0.40867323  0.33334691  0.71081108  1
  N  N29  1  0.51314383  0.62431857  0.83332426  1
  Zr  Zr30  1  0.40074422  0.67427294  -0.02400911  1
  N  N31  1  0.52117383  0.83332729  0.01489498  1
  Zr  Zr32  1  0.33724472  0.62844569  0.33334666  1
  N  N33  1  0.52115627  0.83332601  0.65176484  1
  Zr  Zr34  1  0.40074899  0.67426922  0.69069525  1
  C  C35  1  0.34078610  0.83337516  0.83334616  1
  Zr  Zr36  1  0.66484489  -0.01423961  -0.03888886  1
  N  N37  1  0.88188115  0.12918930  0.26526164  1
  Zr  Zr38  1  0.76004129  -0.01170512  0.33334583  1
  N  N39  1  0.88187876  0.12913332  0.40151029  1
  Zr  Zr40  1  0.66485545  -0.01423879  0.70554530  1
  C  C41  1  0.75610301  0.15412670  0.83330089  1
  Zr  Zr42  1  0.70829116  0.33333278  -0.03819161  1
  N  N43  1  0.88187761  0.53747929  0.26526466  1
  Zr  Zr44  1  0.57209773  0.33334557  0.33333011  1
  N  N45  1  0.88187412  0.53752962  0.40151354  1
  Zr  Zr46  1  0.70834432  0.33333356  0.70474864  1
  C  C47  1  0.75609935  0.51254059  0.83330126  1
  Zr  Zr48  1  0.66484246  0.68090340  -0.03889045  1
  N  N49  1  0.87122666  0.83332994  0.26528593  1
  Zr  Zr50  1  0.76003992  0.67837098  0.33335255  1
  N  N51  1  0.87127946  0.83333658  0.40135786  1
  Zr  Zr52  1  0.66485053  0.68090595  0.70553999  1
  N  N53  1  0.71180590  0.83333010  0.83332663  1
