# generated using pymatgen
data_Zr4Ta23(C2N)9
_symmetry_space_group_name_H-M   'P 1'
_cell_length_a   11.34126239
_cell_length_b   11.40105814
_cell_length_c   11.26394982
_cell_angle_alpha   89.60570903
_cell_angle_beta   89.24999460
_cell_angle_gamma   88.93081960
_symmetry_Int_Tables_number   1
_chemical_formula_structural   Zr4Ta23(C2N)9
_chemical_formula_sum   'Zr4 Ta23 C18 N9'
_cell_volume   1456.04522706
_cell_formula_units_Z   1
loop_
 _symmetry_equiv_pos_site_id
 _symmetry_equiv_pos_as_xyz
  1  'x, y, z'
loop_
 _atom_site_type_symbol
 _atom_site_label
 _atom_site_symmetry_multiplicity
 _atom_site_fract_x
 _atom_site_fract_y
 _atom_site_fract_z
 _atom_site_occupancy
  Ta  Ta0  1  0.05271352  0.05598988  -0.05674483  1
  N  N1  1  0.12199726  0.19492592  0.04725107  1
  Ta  Ta2  1  -0.10592170  0.12550941  0.43521152  1
  C  C3  1  -0.03576756  0.16617588  0.58853469  1
  Ta  Ta4  1  -0.02846302  -0.00517248  0.70600321  1
  C  C5  1  0.16398688  0.11724768  0.79121985  1
  Ta  Ta6  1  -0.00982139  0.29472504  0.00197289  1
  C  C7  1  0.04005944  0.48942014  0.08730560  1
  Ta  Ta8  1  -0.10598988  0.30575675  0.25071826  1
  N  N9  1  0.24352255  0.61759549  0.58338980  1
  Ta  Ta10  1  0.03770959  0.24448802  0.73569155  1
  C  C11  1  0.18783579  0.61843082  0.85067004  1
  Ta  Ta12  1  0.03035499  0.54725258  -0.08715678  1
  N  N13  1  0.22573009  0.84623642  0.05081624  1
  Ta  Ta14  1  -0.20109948  0.77519433  0.40574443  1
  C  C15  1  0.10530318  0.83309404  0.69342026  1
  Ta  Ta16  1  0.11355068  0.64761864  0.67892864  1
  C  C17  1  0.15740133  0.92707728  0.74111904  1
  Ta  Ta18  1  0.38339074  -0.11392464  0.01174804  1
  C  C19  1  0.58841086  0.14678519  0.20540359  1
  Ta  Ta20  1  0.47481658  0.09173922  0.35121185  1
  C  C21  1  0.58578969  0.18315170  0.48629234  1
  Ta  Ta22  1  0.32195211  0.00551051  0.78291419  1
  C  C23  1  0.36607002  0.07389250  0.97553173  1
  Ta  Ta24  1  0.24557655  0.20812239  -0.07059284  1
  N  N25  1  0.51815919  0.61049508  0.25321655  1
  Ta  Ta26  1  0.45000887  0.33297615  0.43449550  1
  C  C27  1  0.55956735  0.47114089  0.47796701  1
  Ta  Ta28  1  0.44450460  0.15825487  0.60748856  1
  N  N29  1  0.51511365  0.60420224  0.71414739  1
  Ta  Ta30  1  0.17644472  0.79850149  -0.10621589  1
  C  C31  1  0.56902803  0.89235648  0.09811784  1
  Ta  Ta32  1  0.43381986  0.59342623  0.40267839  1
  N  N33  1  0.47812146  0.72605185  0.49334080  1
  Zr  Zr34  1  0.38015633  0.71701115  0.67273971  1
  C  C35  1  0.37373417  0.82599553  0.83887871  1
  Ta  Ta36  1  0.55111961  0.06824079  0.05463367  1
  C  C37  1  0.83213144  0.22834440  0.10563530  1
  Ta  Ta38  1  0.69453428  0.00597688  0.30572585  1
  C  C39  1  0.71269870  0.16601982  0.46827010  1
  Zr  Zr40  1  0.70893918  0.00734884  0.59297377  1
  C  C41  1  0.91759718  0.17023536  0.85062201  1
  Ta  Ta42  1  0.79471537  0.11917785  -0.03202984  1
  C  C43  1  0.99293510  0.43091088  0.17397846  1
  Ta  Ta44  1  0.66312989  0.26521028  0.31137706  1
  N  N45  1  0.76788633  0.63585200  0.48759353  1
  Zr  Zr46  1  0.67325328  0.33904948  0.57751162  1
  C  C47  1  1.02832641  0.39820406  0.83235131  1
  Ta  Ta48  1  0.57712907  0.77491594  0.23459515  1
  N  N49  1  0.74283550  0.72684009  0.25097024  1
  Zr  Zr50  1  0.69607151  0.53616246  0.32845091  1
  C  C51  1  0.83052200  0.94961901  0.45264329  1
  Ta  Ta52  1  0.60532760  0.62495065  0.57850961  1
  N  N53  1  0.85308044  0.92568651  0.79272896  1
