# generated using pymatgen
data_Ta27C4N23
_symmetry_space_group_name_H-M   'P 1'
_cell_length_a   11.70446607
_cell_length_b   11.51892425
_cell_length_c   11.68573868
_cell_angle_alpha   89.99842809
_cell_angle_beta   88.44725004
_cell_angle_gamma   89.99831041
_symmetry_Int_Tables_number   1
_chemical_formula_structural   Ta27C4N23
_chemical_formula_sum   'Ta27 C4 N23'
_cell_volume   1574.92616263
_cell_formula_units_Z   1
loop_
 _symmetry_equiv_pos_site_id
 _symmetry_equiv_pos_as_xyz
  1  'x, y, z'
loop_
 _atom_site_type_symbol
 _atom_site_label
 _atom_site_symmetry_multiplicity
 _atom_site_fract_x
 _atom_site_fract_y
 _atom_site_fract_z
 _atom_site_occupancy
  Ta  Ta0  1  -0.11717943  0.11757751  -0.11992329  1
  N  N1  1  0.18360694  0.21327155  0.18325792  1
  Ta  Ta2  1  -0.00448389  -0.04977681  0.39894297  1
  N  N3  1  0.27223668  0.21667260  0.44446889  1
  Ta  Ta4  1  -0.07363739  -0.04040582  0.63576780  1
  N  N5  1  0.01811963  0.21524334  0.85208281  1
  Ta  Ta6  1  -0.00729178  0.33349663  -0.00523003  1
  N  N7  1  0.18266634  0.45309058  0.18241778  1
  Ta  Ta8  1  0.06817272  0.33294492  0.22669586  1
  N  N9  1  0.27219423  0.44996280  0.44441741  1
  Ta  Ta10  1  -0.05554726  0.33347002  0.74818741  1
  N  N11  1  0.01792739  0.45180922  0.85179936  1
  Ta  Ta12  1  -0.11744134  0.54942349  -0.12012297  1
  N  N13  1  0.21738832  0.83378332  0.17765250  1
  Ta  Ta14  1  -0.00411871  0.71624506  0.39984310  1
  N  N15  1  0.01803231  0.83326585  0.53111400  1
  Ta  Ta16  1  -0.07459437  0.70642321  0.63594406  1
  N  N17  1  0.33948054  0.83321106  0.86046134  1
  Ta  Ta18  1  0.37588111  -0.05057102  -0.00713352  1
  N  N19  1  0.44543283  0.21667834  0.27095456  1
  Ta  Ta20  1  0.40296476  0.12590659  0.40183696  1
  N  N21  1  0.49823219  0.21876373  0.49730318  1
  Ta  Ta22  1  0.44053546  -0.05046566  0.74823573  1
  N  N23  1  0.47499499  0.04921106  0.88943534  1
  Ta  Ta24  1  0.22831367  0.33293622  0.06757438  1
  N  N25  1  0.44537482  0.44997323  0.27092149  1
  Ta  Ta26  1  0.29696031  0.33327509  0.29579614  1
  N  N27  1  0.49820919  0.44786929  0.49728604  1
  Ta  Ta28  1  0.36399979  0.33333444  0.54375357  1
  N  N29  1  0.47511439  0.61749836  0.88934525  1
  Ta  Ta30  1  0.37601381  0.71697232  -0.00762368  1
  N  N31  1  0.50201909  0.83352097  0.03833507  1
  Ta  Ta32  1  0.40291641  0.54071559  0.40181057  1
  N  N33  1  0.51240929  0.83246079  0.64274392  1
  Ta  Ta34  1  0.43958544  0.71538918  0.74745702  1
  C  C35  1  0.62577040  0.83433247  0.81008019  1
  Ta  Ta36  1  0.61455656  -0.04068358  -0.06389554  1
  N  N37  1  0.85307484  0.21434424  0.01612033  1
  Ta  Ta38  1  0.76272627  -0.04314150  0.41224020  1
  N  N39  1  0.88568019  0.04897741  0.49483955  1
  Ta  Ta40  1  0.68147477  -0.04888310  0.67054325  1
  C  C41  1  0.78240163  0.21530562  0.78007863  1
  Ta  Ta42  1  0.74922300  0.33342051  -0.05774678  1
  N  N43  1  0.85300175  0.45285844  0.01589496  1
  Ta  Ta44  1  0.54456332  0.33333938  0.36296869  1
  N  N45  1  0.88482958  0.61738068  0.49465905  1
  Ta  Ta46  1  0.69534089  0.33328503  0.69459922  1
  C  C47  1  0.78227750  0.45139426  0.77997026  1
  Ta  Ta48  1  0.61439109  0.70806795  -0.06438024  1
  N  N49  1  0.88364640  0.83323965  0.32683178  1
  Ta  Ta50  1  0.76287142  0.71006292  0.41219370  1
  C  C51  1  0.70103512  0.83380707  0.52412189  1
  Ta  Ta52  1  0.68081770  0.71665666  0.67043320  1
  N  N53  1  0.82782915  0.83305882  0.70463872  1
