# generated using pymatgen
data_Zr8Ta19N27
_symmetry_space_group_name_H-M   'P 1'
_cell_length_a   11.54152265
_cell_length_b   11.36711682
_cell_length_c   11.53512373
_cell_angle_alpha   89.82956928
_cell_angle_beta   88.76817622
_cell_angle_gamma   89.48585668
_symmetry_Int_Tables_number   1
_chemical_formula_structural   Zr8Ta19N27
_chemical_formula_sum   'Zr8 Ta19 N27'
_cell_volume   1512.92062626
_cell_formula_units_Z   1
loop_
 _symmetry_equiv_pos_site_id
 _symmetry_equiv_pos_as_xyz
  1  'x, y, z'
loop_
 _atom_site_type_symbol
 _atom_site_label
 _atom_site_symmetry_multiplicity
 _atom_site_fract_x
 _atom_site_fract_y
 _atom_site_fract_z
 _atom_site_occupancy
  Ta  Ta0  1  0.02036918  0.15849239  0.14097445  1
  N  N1  1  0.16839271  0.21451580  0.04654043  1
  Zr  Zr2  1  0.03470823  -0.07443270  0.30778638  1
  N  N3  1  0.12533850  0.02728667  0.42759894  1
  Zr  Zr4  1  0.04671849  0.02684011  0.59230202  1
  N  N5  1  0.19860220  0.03856974  0.83344889  1
  Ta  Ta6  1  0.12730868  0.38621162  0.07526769  1
  N  N7  1  0.07583251  0.47233751  0.23424894  1
  Ta  Ta8  1  -0.06234682  0.36907984  0.26895310  1
  N  N9  1  0.20371852  0.62429846  0.46108647  1
  Ta  Ta10  1  -0.12007636  0.25983118  0.60722614  1
  N  N11  1  0.23482135  0.51020636  0.95503963  1
  Ta  Ta12  1  0.10649082  0.63689426  0.16470601  1
  N  N13  1  0.05289051  0.74150832  0.27745250  1
  Zr  Zr14  1  -0.09227957  0.67774472  0.38382780  1
  N  N15  1  0.03142258  0.85320734  0.58542076  1
  Ta  Ta16  1  0.14958661  0.73601566  0.58723563  1
  N  N17  1  0.24602604  0.77476690  0.71543451  1
  Ta  Ta18  1  0.20371904  0.04998418  -0.01134809  1
  N  N19  1  0.48701759  0.23973222  0.02671491  1
  Ta  Ta20  1  0.24640507  -0.09175970  0.45554199  1
  N  N21  1  0.71512708  0.26925893  0.57250240  1
  Zr  Zr22  1  0.31406966  -0.04689900  0.71634708  1
  N  N23  1  0.60785908  0.18517379  0.75558578  1
  Ta  Ta24  1  0.35375626  0.38261468  -0.03754350  1
  N  N25  1  0.47371359  0.49211058  0.02425593  1
  Ta  Ta26  1  0.27859145  0.49269735  0.22796507  1
  N  N27  1  0.56748172  0.44821688  0.55130002  1
  Ta  Ta28  1  0.47941531  0.19329079  0.86503107  1
  N  N29  1  0.44020523  0.35131737  0.80959586  1
  Ta  Ta30  1  0.34654588  0.61984328  0.04043153  1
  N  N31  1  0.52930412  0.70382820  0.13781122  1
  Ta  Ta32  1  0.34990489  0.67131866  0.40479884  1
  N  N33  1  0.44186359  0.69106722  0.55049058  1
  Zr  Zr34  1  0.41206717  0.70849613  0.73808649  1
  N  N35  1  0.45149357  0.86965409  0.77650659  1
  Ta  Ta36  1  0.76179141  0.17668375  -0.13817346  1
  N  N37  1  0.92608508  0.29666609  0.11881648  1
  Ta  Ta38  1  0.76566932  -0.11561115  0.31568115  1
  N  N39  1  0.88075199  0.09557621  0.57084421  1
  Zr  Zr40  1  0.70369923  0.07167891  0.63503941  1
  N  N41  1  0.87841869  0.25721505  0.77237312  1
  Ta  Ta42  1  0.60831728  0.35944750  0.05008620  1
  N  N43  1  0.67831607  0.50062345  0.12495668  1
  Ta  Ta44  1  0.72909054  0.40616489  0.45164573  1
  N  N45  1  0.74261462  0.58729805  0.43626651  1
  Zr  Zr46  1  0.61566843  0.37236288  0.71578037  1
  N  N47  1  0.68087911  0.34612879  0.90403844  1
  Ta  Ta48  1  0.59887101  0.61594075  0.02266412  1
  N  N49  1  0.78699721  0.73866850  0.24686514  1
  Zr  Zr50  1  0.64808166  0.61817705  0.26908311  1
  N  N51  1  0.88875862  0.87151779  0.41113025  1
  Ta  Ta52  1  0.59421385  0.61038931  0.53413436  1
  N  N53  1  0.76571139  1.02775238  0.79014408  1
