# generated using pymatgen
data_Zr13Ta14C4N23
_symmetry_space_group_name_H-M   'P 1'
_cell_length_a   11.58291031
_cell_length_b   11.52668125
_cell_length_c   11.48799544
_cell_angle_alpha   92.67959168
_cell_angle_beta   89.52423954
_cell_angle_gamma   90.51397898
_symmetry_Int_Tables_number   1
_chemical_formula_structural   Zr13Ta14C4N23
_chemical_formula_sum   'Zr13 Ta14 C4 N23'
_cell_volume   1532.00473309
_cell_formula_units_Z   1
loop_
 _symmetry_equiv_pos_site_id
 _symmetry_equiv_pos_as_xyz
  1  'x, y, z'
loop_
 _atom_site_type_symbol
 _atom_site_label
 _atom_site_symmetry_multiplicity
 _atom_site_fract_x
 _atom_site_fract_y
 _atom_site_fract_z
 _atom_site_occupancy
  Ta  Ta0  1  -0.17625280  0.13082035  -0.12588166  1
  N  N1  1  0.14234545  0.14701228  0.20899855  1
  Zr  Zr2  1  0.07992221  -0.07825163  0.42833824  1
  N  N3  1  0.22578926  0.21501328  0.43563630  1
  Zr  Zr4  1  -0.10700379  0.02771575  0.62010339  1
  N  N5  1  -0.00424740  0.14610981  0.84814794  1
  Zr  Zr6  1  0.00887229  0.23624534  0.02421764  1
  N  N7  1  0.27301795  0.36822001  0.16741139  1
  Ta  Ta8  1  0.17053818  0.32677043  0.30537939  1
  N  N9  1  0.27411718  0.44891701  0.37411146  1
  Zr  Zr10  1  -0.00528967  0.28640262  0.74335647  1
  N  N11  1  -0.04723274  0.39822998  0.95272790  1
  Ta  Ta12  1  -0.11143876  0.54581506  0.03271395  1
  N  N13  1  -0.03883949  0.86405104  0.30823276  1
  Zr  Zr14  1  -0.09330009  0.67742486  0.29187720  1
  N  N15  1  0.05847710  0.78086491  0.51645745  1
  Ta  Ta16  1  -0.09242376  0.74053995  0.56587101  1
  N  N17  1  0.35948403  0.76495500  0.78355137  1
  Zr  Zr18  1  0.40722886  0.02204757  -0.00079194  1
  N  N19  1  0.40559904  0.14857470  0.17449780  1
  Ta  Ta20  1  0.28507274  0.10656984  0.30629991  1
  N  N21  1  0.48831871  0.29399807  0.43266099  1
  Zr  Zr22  1  0.45428551  -0.10024210  0.71737348  1
  N  N23  1  0.51049268  0.03990000  0.85534974  1
  Ta  Ta24  1  0.26114740  0.21235408  0.09872177  1
  N  N25  1  0.53073156  0.53368321  0.34398282  1
  Zr  Zr26  1  0.44080618  0.35697287  0.25394213  1
  N  N27  1  0.40903947  0.49647787  0.57899272  1
  Ta  Ta28  1  0.33678039  0.33664865  0.50684304  1
  N  N29  1  0.52383226  0.56908106  0.85487284  1
  Ta  Ta30  1  0.45143412  0.73484917  -0.07898909  1
  N  N31  1  0.48666997  0.87168086  0.02109872  1
  Ta  Ta32  1  0.37598435  0.56998504  0.42256460  1
  N  N33  1  0.56211412  0.78333022  0.59370726  1
  Zr  Zr34  1  0.47507699  0.64299266  0.67832207  1
  C  C35  1  0.59643652  0.78260904  0.82220532  1
  Zr  Zr36  1  0.64868887  -0.06494889  -0.06382637  1
  N  N37  1  0.82242998  0.22500987  0.03005007  1
  Ta  Ta38  1  0.80769886  -0.08927366  0.35229388  1
  N  N39  1  0.91875700  0.20234134  0.59233120  1
  Zr  Zr40  1  0.61827796  0.10592172  0.72086750  1
  C  C41  1  0.69796451  0.27347289  0.79821641  1
  Ta  Ta42  1  0.77672436  0.36172521  -0.04947569  1
  N  N43  1  0.97365740  0.57015306  0.15996424  1
  Ta  Ta44  1  0.56477059  0.44280695  0.48866946  1
  N  N45  1  0.84217154  0.62471311  0.45848468  1
  Zr  Zr46  1  0.76907403  0.29640426  0.59846213  1
  C  C47  1  0.80954326  0.32494731  0.77871450  1
  Ta  Ta48  1  0.67842194  0.62035951  -0.15010094  1
  N  N49  1  0.73641497  0.77134611  0.29073306  1
  Zr  Zr50  1  0.66508748  0.69993400  0.44762232  1
  C  C51  1  0.78337131  0.88017940  0.52095365  1
  Ta  Ta52  1  0.70893711  0.83619490  0.69254770  1
  N  N53  1  0.76042281  0.99034406  0.77058727  1
