# generated using pymatgen
data_Zr13Ta14C27
_symmetry_space_group_name_H-M   'P 1'
_cell_length_a   10.64622128
_cell_length_b   10.71429350
_cell_length_c   10.74196861
_cell_angle_alpha   90.42117986
_cell_angle_beta   90.25804224
_cell_angle_gamma   91.68518488
_symmetry_Int_Tables_number   1
_chemical_formula_structural   Zr13Ta14C27
_chemical_formula_sum   'Zr13 Ta14 C27'
_cell_volume   1224.72464321
_cell_formula_units_Z   1
loop_
 _symmetry_equiv_pos_site_id
 _symmetry_equiv_pos_as_xyz
  1  'x, y, z'
loop_
 _atom_site_type_symbol
 _atom_site_label
 _atom_site_symmetry_multiplicity
 _atom_site_fract_x
 _atom_site_fract_y
 _atom_site_fract_z
 _atom_site_occupancy
  Ta  Ta0  1  -0.07156618  0.06523013  -0.03901839  1
  C  C1  1  0.14040508  0.17145706  0.28544164  1
  Zr  Zr2  1  0.02613450  -0.03901830  0.26679112  1
  C  C3  1  0.17479511  0.16080215  0.57955763  1
  Zr  Zr4  1  0.03806307  -0.01113526  0.58974346  1
  C  C5  1  0.10880807  0.17220666  0.90553976  1
  Zr  Zr6  1  -0.04388297  0.34254869  -0.01452461  1
  C  C7  1  0.15903422  0.39465440  0.08899193  1
  Ta  Ta8  1  0.03130022  0.22729370  0.44023567  1
  C  C9  1  0.16326138  0.59772247  0.50747273  1
  Zr  Zr10  1  0.04872806  0.24184619  0.72492255  1
  C  C11  1  0.11518722  0.50786624  1.07286851  1
  Ta  Ta12  1  0.02113308  0.67878060  0.07274918  1
  C  C13  1  0.11889061  0.78789012  0.19244991  1
  Zr  Zr14  1  0.03344550  0.69353300  0.36154884  1
  C  C15  1  0.14702243  0.88599488  0.44723629  1
  Ta  Ta16  1  0.11915803  0.74616831  0.61759993  1
  C  C17  1  0.25271093  0.76082491  0.76562671  1
  Zr  Zr18  1  0.38162196  0.14850185  -0.12848578  1
  C  C19  1  0.37873475  0.21641112  0.06863283  1
  Ta  Ta20  1  0.26018270  0.07937346  0.42020029  1
  C  C21  1  0.42058710  0.20899317  0.41506542  1
  Zr  Zr22  1  0.36642233  -0.09799325  0.65374167  1
  C  C23  1  0.57940173  0.09036717  0.83763510  1
  Ta  Ta24  1  0.18371872  0.19198623  0.08330933  1
  C  C25  1  0.42793895  0.50809578  0.36610157  1
  Zr  Zr26  1  0.33280500  0.32730879  0.25784785  1
  C  C27  1  0.40032468  0.49440101  0.50339493  1
  Ta  Ta28  1  0.31438370  0.30668847  0.55601593  1
  C  C29  1  0.50732056  0.65116231  0.75743535  1
  Ta  Ta30  1  0.43172706  0.77174098  -0.11670599  1
  C  C31  1  0.56966217  0.77103334  0.03775098  1
  Ta  Ta32  1  0.32245235  0.67269124  0.40466086  1
  C  C33  1  0.43831105  0.76357221  0.52538759  1
  Zr  Zr34  1  0.31547429  0.57717765  0.68010694  1
  C  C35  1  0.50047403  0.96640986  0.83166348  1
  Zr  Zr36  1  0.62804868  -0.02034332  0.00857194  1
  C  C37  1  0.81820050  0.18161458  0.06831989  1
  Ta  Ta38  1  0.79577298  0.00955059  0.43827354  1
  C  C39  1  0.88978616  0.13547622  0.56045855  1
  Zr  Zr40  1  0.75058305  0.01874990  0.73428666  1
  C  C41  1  0.84818880  0.19701523  0.79671943  1
  Ta  Ta42  1  0.69904309  0.24525885  -0.08328501  1
  C  C43  1  0.83911421  0.63173264  0.17406410  1
  Ta  Ta44  1  0.55780259  0.37310145  0.42896383  1
  C  C45  1  0.71963411  0.48919234  0.49339714  1
  Zr  Zr46  1  0.77322603  0.31013612  0.60089871  1
  C  C47  1  0.85157386  0.33522859  0.79579173  1
  Ta  Ta48  1  0.75519900  0.74047755  0.00729372  1
  C  C49  1  0.85684764  0.76926415  0.18399935  1
  Zr  Zr50  1  0.74236712  0.68459543  0.36008244  1
  C  C51  1  0.88486207  0.84603453  0.42512200  1
  Ta  Ta52  1  0.56644060  0.61204705  0.57613628  1
  C  C53  1  0.80913798  0.90828075  0.91191448  1
