# generated using pymatgen
data_Ta27C17N10
_symmetry_space_group_name_H-M   'P 1'
_cell_length_a   11.30431855
_cell_length_b   11.36616147
_cell_length_c   11.34047771
_cell_angle_alpha   89.39265380
_cell_angle_beta   87.93474540
_cell_angle_gamma   90.02369020
_symmetry_Int_Tables_number   1
_chemical_formula_structural   Ta27C17N10
_chemical_formula_sum   'Ta27 C17 N10'
_cell_volume   1456.07191391
_cell_formula_units_Z   1
loop_
 _symmetry_equiv_pos_site_id
 _symmetry_equiv_pos_as_xyz
  1  'x, y, z'
loop_
 _atom_site_type_symbol
 _atom_site_label
 _atom_site_symmetry_multiplicity
 _atom_site_fract_x
 _atom_site_fract_y
 _atom_site_fract_z
 _atom_site_occupancy
  Ta  Ta0  1  0.04222866  0.08735824  0.00250767  1
  N  N1  1  0.10934279  0.25731333  0.00804748  1
  Ta  Ta2  1  -0.14053077  0.05991565  0.40179316  1
  C  C3  1  0.22253261  0.14477372  0.60921146  1
  Ta  Ta4  1  0.08313356  0.02772256  0.55430252  1
  C  C5  1  0.13110478  0.17889485  0.69241560  1
  Ta  Ta6  1  -0.05240857  0.32059892  -0.04438758  1
  C  C7  1  0.09977270  0.61783693  0.01852457  1
  Ta  Ta8  1  -0.16285474  0.30634130  0.29690445  1
  N  N9  1  0.23229119  0.57424770  0.54136881  1
  Ta  Ta10  1  -0.03039548  0.09288882  0.77583543  1
  C  C11  1  0.15341968  0.65608080  0.75239676  1
  Ta  Ta12  1  0.02069490  0.58002065  -0.13795314  1
  N  N13  1  0.12753584  0.81538158  0.24656196  1
  Ta  Ta14  1  -0.00977680  0.78745601  0.33476793  1
  C  C15  1  0.18106616  0.89235289  0.60790278  1
  Ta  Ta16  1  0.04798546  0.82429960  0.76842994  1
  C  C17  1  0.21631746  0.84102326  0.86718712  1
  Ta  Ta18  1  0.44421969  0.10173600  -0.13848131  1
  C  C19  1  0.63468207  0.25502438  0.02761684  1
  Ta  Ta20  1  0.35702758  0.02298733  0.54742199  1
  C  C21  1  0.47793668  0.18109513  0.53400972  1
  Ta  Ta22  1  0.23688638  -0.00447533  0.77069426  1
  C  C23  1  0.53352725  0.22787169  0.77448265  1
  Ta  Ta24  1  0.20698626  0.22319965  -0.13100273  1
  N  N25  1  0.57953595  0.38841700  0.32686678  1
  Ta  Ta26  1  0.42927933  0.32836118  0.42546009  1
  C  C27  1  0.47233828  0.44681970  0.56395433  1
  Ta  Ta28  1  0.36459412  0.25316449  0.66685160  1
  N  N29  1  0.69474045  0.60342457  0.71720673  1
  Ta  Ta30  1  0.24334984  0.68038390  -0.07792840  1
  N  N31  1  0.50333806  0.82270362  0.15957016  1
  Ta  Ta32  1  0.37414456  0.58989086  0.47139768  1
  N  N33  1  0.55490917  0.65986635  0.51918374  1
  Ta  Ta34  1  0.28288162  0.75474527  0.66096185  1
  C  C35  1  0.42423370  0.96296458  0.72104615  1
  Ta  Ta36  1  0.70386847  0.23485570  -0.13764523  1
  C  C37  1  0.73665683  0.15113871  0.27286299  1
  Ta  Ta38  1  0.63025288  0.15658429  0.42787503  1
  C  C39  1  0.73206195  0.05445278  0.53966090  1
  Ta  Ta40  1  0.57711767  0.06339836  0.65812776  1
  C  C41  1  0.86993169  0.13926833  0.92261732  1
  Ta  Ta42  1  0.79128706  0.15407215  0.09268464  1
  C  C43  1  0.89360355  0.31810403  0.13311266  1
  Ta  Ta44  1  0.59050912  0.26475717  0.20370543  1
  N  N45  1  0.73779394  0.40873800  0.53543300  1
  Ta  Ta46  1  0.60283800  0.31951103  0.62870708  1
  C  C47  1  0.85479919  0.46804060  0.88678919  1
  Ta  Ta48  1  0.76825370  0.62332795  -0.14089350  1
  N  N49  1  0.87069237  0.82517876  0.23308720  1
  Ta  Ta50  1  0.63292179  0.50080023  0.44439805  1
  C  C51  1  0.97642722  0.93239157  0.44321823  1
  Ta  Ta52  1  0.53169725  0.59383433  0.67446975  1
  N  N53  1  0.91321693  0.72885886  0.84666050  1
