# generated using pymatgen
data_Zr11Ta16(C2N)9
_symmetry_space_group_name_H-M   'P 1'
_cell_length_a   11.10824196
_cell_length_b   11.34814609
_cell_length_c   11.37732881
_cell_angle_alpha   89.57953295
_cell_angle_beta   87.29067672
_cell_angle_gamma   89.13991537
_symmetry_Int_Tables_number   1
_chemical_formula_structural   Zr11Ta16(C2N)9
_chemical_formula_sum   'Zr11 Ta16 C18 N9'
_cell_volume   1432.40666181
_cell_formula_units_Z   1
loop_
 _symmetry_equiv_pos_site_id
 _symmetry_equiv_pos_as_xyz
  1  'x, y, z'
loop_
 _atom_site_type_symbol
 _atom_site_label
 _atom_site_symmetry_multiplicity
 _atom_site_fract_x
 _atom_site_fract_y
 _atom_site_fract_z
 _atom_site_occupancy
  Ta  Ta0  1  -0.02208541  0.08729346  -0.09152711  1
  N  N1  1  0.15656650  0.16371760  0.05416208  1
  Zr  Zr2  1  -0.03772226  0.06094356  0.38304693  1
  C  C3  1  0.22978906  0.06258450  0.53822028  1
  Zr  Zr4  1  0.03644872  0.06710362  0.63615321  1
  C  C5  1  0.14165200  0.12787183  0.78665479  1
  Ta  Ta6  1  0.04275173  0.29782367  0.05443829  1
  C  C7  1  -0.00565554  0.40283403  0.20718397  1
  Ta  Ta8  1  -0.15979243  0.26342568  0.24476958  1
  N  N9  1  0.24109918  0.66327511  0.53311391  1
  Zr  Zr10  1  0.03121229  0.31461042  0.76135698  1
  C  C11  1  0.07072601  0.44243322  0.91784546  1
  Ta  Ta12  1  -0.00740823  0.55544423  0.08000525  1
  N  N13  1  0.00416839  0.67573048  0.18676565  1
  Zr  Zr14  1  -0.10468325  0.70863118  0.33445345  1
  C  C15  1  -0.02889976  0.92240777  0.53574751  1
  Ta  Ta16  1  0.15205358  0.81455945  0.53953171  1
  C  C17  1  0.16535800  0.82426929  0.71443347  1
  Zr  Zr18  1  0.42834356  -0.03080593  -0.03200277  1
  C  C19  1  0.63840128  0.19009921  0.21263174  1
  Ta  Ta20  1  0.40260990  0.09878188  0.45931167  1
  C  C21  1  0.52023809  0.19646046  0.55869120  1
  Zr  Zr22  1  0.30086401  -0.01906883  0.71043066  1
  C  C23  1  0.56530157  0.08337027  0.88634474  1
  Ta  Ta24  1  0.24896002  0.18488838  -0.08788216  1
  N  N25  1  0.59004907  0.64096290  0.18696741  1
  Ta  Ta26  1  0.42280549  0.36061454  0.54731866  1
  C  C27  1  0.51645721  0.44839529  0.40798147  1
  Ta  Ta28  1  0.26346722  0.21500042  0.65281530  1
  N  N29  1  0.52655609  0.57988455  0.67765483  1
  Ta  Ta30  1  0.21047335  0.81374413  -0.12134575  1
  C  C31  1  0.55577586  0.87384694  0.07035519  1
  Ta  Ta32  1  0.37287257  0.59137551  0.43275301  1
  N  N33  1  0.48009701  0.70333159  0.48940367  1
  Zr  Zr34  1  0.39408515  0.70480460  0.66797271  1
  C  C35  1  0.38950521  0.83563371  0.82990666  1
  Zr  Zr36  1  0.67984178  0.03386243  0.04051023  1
  C  C37  1  0.71562974  0.21526759  0.11307787  1
  Ta  Ta38  1  0.71889788  0.03545522  0.30191804  1
  C  C39  1  0.78797377  0.16280541  0.41128847  1
  Zr  Zr40  1  0.73212169  0.05096855  0.78174645  1
  C  C41  1  0.87460356  0.19124410  0.76628772  1
  Ta  Ta42  1  0.81174284  0.27546509  -0.05176085  1
  C  C43  1  0.87756050  0.42693327  0.15872351  1
  Ta  Ta44  1  0.61655677  0.26858990  0.39393499  1
  N  N45  1  0.74192511  0.61969944  0.45686576  1
  Zr  Zr46  1  0.79903771  0.25496717  0.58515377  1
  C  C47  1  0.94647633  0.40875194  0.92253081  1
  Ta  Ta48  1  0.68038594  0.75578114  0.11338246  1
  N  N49  1  0.75629395  0.81974913  0.25585895  1
  Zr  Zr50  1  0.61349510  0.70740898  0.35520756  1
  C  C51  1  0.95940424  0.83228892  0.45978581  1
  Ta  Ta52  1  0.62536901  0.52434855  0.54772264  1
  N  N53  1  0.83024289  0.99013443  0.92210220  1
