# generated using pymatgen
data_Ta27C10N17
_symmetry_space_group_name_H-M   'P 1'
_cell_length_a   11.32465329
_cell_length_b   11.40485449
_cell_length_c   11.67633357
_cell_angle_alpha   90.00726650
_cell_angle_beta   89.85603088
_cell_angle_gamma   90.77759357
_symmetry_Int_Tables_number   1
_chemical_formula_structural   Ta27C10N17
_chemical_formula_sum   'Ta27 C10 N17'
_cell_volume   1507.92515857
_cell_formula_units_Z   1
loop_
 _symmetry_equiv_pos_site_id
 _symmetry_equiv_pos_as_xyz
  1  'x, y, z'
loop_
 _atom_site_type_symbol
 _atom_site_label
 _atom_site_symmetry_multiplicity
 _atom_site_fract_x
 _atom_site_fract_y
 _atom_site_fract_z
 _atom_site_occupancy
  Ta  Ta0  1  0.00309785  0.14028903  -0.14544921  1
  N  N1  1  0.24674510  0.18704859  0.36724829  1
  Ta  Ta2  1  -0.06109461  0.01424719  0.37816827  1
  C  C3  1  0.21004142  0.07885220  0.60362378  1
  Ta  Ta4  1  0.01941497  0.04541517  0.62061954  1
  C  C5  1  0.19829145  0.23082103  0.82924247  1
  Ta  Ta6  1  -0.08573483  0.36707594  -0.03959118  1
  N  N7  1  0.18306173  0.39034233  0.31953847  1
  Ta  Ta8  1  0.12632974  0.28549501  0.45331044  1
  N  N9  1  0.16152883  0.61115267  0.52614563  1
  Ta  Ta10  1  0.06058828  0.31006408  0.70749925  1
  C  C11  1  0.06863591  0.44138407  0.84430021  1
  Ta  Ta12  1  -0.04944416  0.53288270  -0.24355908  1
  N  N13  1  0.18356923  0.68032762  0.30296683  1
  Ta  Ta14  1  0.06279241  0.71966139  0.41293238  1
  C  C15  1  0.07493302  0.88492522  0.51650445  1
  Ta  Ta16  1  -0.07350649  0.75795243  0.63312343  1
  N  N17  1  0.28578879  0.75273526  0.75545904  1
  Ta  Ta18  1  0.38782829  -0.00757232  -0.07828176  1
  C  C19  1  0.49608633  0.13088159  -0.01334354  1
  Ta  Ta20  1  0.19830025  0.04102925  0.43363131  1
  N  N21  1  0.51433347  0.20376365  0.34430863  1
  Ta  Ta22  1  0.21939075  0.05300105  0.77805231  1
  C  C23  1  0.54049056  0.13567363  0.86589905  1
  Ta  Ta24  1  0.38317417  0.25008681  -0.11219019  1
  N  N25  1  0.46299445  0.34183681  0.16602627  1
  Ta  Ta26  1  0.36980216  0.32485040  0.31319740  1
  N  N27  1  0.39680555  0.46856457  0.39352769  1
  Ta  Ta28  1  0.27968315  0.25248332  0.64296654  1
  N  N29  1  0.53983137  0.64095932  0.84168248  1
  Ta  Ta30  1  0.39998087  0.73026052  -0.12742256  1
  N  N31  1  0.57915847  0.92652157  0.20277143  1
  Ta  Ta32  1  0.23920753  0.53831145  0.38152854  1
  N  N33  1  0.66299876  0.81345040  0.52456458  1
  Ta  Ta34  1  0.16753285  0.74066207  0.63854137  1
  C  C35  1  0.51745663  0.86553063  0.92839930  1
  Ta  Ta36  1  0.60347146  -0.01600793  0.05257142  1
  N  N37  1  0.69244125  0.13939898  0.13102224  1
  Ta  Ta38  1  0.70580570  0.02315679  0.27421016  1
  N  N39  1  0.80675432  0.10780033  0.39144572  1
  Ta  Ta40  1  0.61987154  -0.02749598  0.80036051  1
  C  C41  1  0.83862176  0.18854988  0.91256897  1
  Ta  Ta42  1  0.67586344  0.23098902  -0.01593421  1
  N  N43  1  0.83679491  0.39196359  0.09423263  1
  Ta  Ta44  1  0.59966146  0.27061886  0.22711998  1
  N  N45  1  0.90035094  0.65985289  0.46923903  1
  Ta  Ta46  1  0.80917465  0.28093554  0.75279578  1
  C  C47  1  0.79968902  0.45326230  0.82497377  1
  Ta  Ta48  1  0.65358545  0.74177490  -0.08125504  1
  N  N49  1  0.82676847  0.90008266  0.28723537  1
  Ta  Ta50  1  0.79745306  0.79250065  0.42515165  1
  C  C51  1  0.93625724  0.90009844  0.51837066  1
  Ta  Ta52  1  0.68052023  0.74334656  0.66907372  1
  N  N53  1  0.74682089  0.83820591  0.80087582  1
