# generated using pymatgen
data_Zr6Ta21C4N23
_symmetry_space_group_name_H-M   'P 1'
_cell_length_a   11.50907753
_cell_length_b   11.55876492
_cell_length_c   11.67606563
_cell_angle_alpha   91.51655564
_cell_angle_beta   90.49115184
_cell_angle_gamma   91.11072838
_symmetry_Int_Tables_number   1
_chemical_formula_structural   Zr6Ta21C4N23
_chemical_formula_sum   'Zr6 Ta21 C4 N23'
_cell_volume   1552.37545594
_cell_formula_units_Z   1
loop_
 _symmetry_equiv_pos_site_id
 _symmetry_equiv_pos_as_xyz
  1  'x, y, z'
loop_
 _atom_site_type_symbol
 _atom_site_label
 _atom_site_symmetry_multiplicity
 _atom_site_fract_x
 _atom_site_fract_y
 _atom_site_fract_z
 _atom_site_occupancy
  Ta  Ta0  1  -0.05202888  0.14842402  -0.02656512  1
  N  N1  1  0.10120166  0.13887769  0.14396960  1
  Zr  Zr2  1  0.05963369  -0.07907457  0.34114616  1
  N  N3  1  0.08844418  0.09882793  0.38885978  1
  Ta  Ta4  1  -0.11599813  -0.04874748  0.63983177  1
  N  N5  1  0.06281111  0.25313887  0.90143920  1
  Ta  Ta6  1  0.01229057  0.41154309  0.02700325  1
  N  N7  1  0.13165362  0.38719430  0.15401691  1
  Ta  Ta8  1  0.03086146  0.26105390  0.21721874  1
  N  N9  1  0.23011372  0.47081554  0.39268803  1
  Ta  Ta10  1  -0.07777445  0.32436061  0.79804025  1
  N  N11  1  0.23718458  0.44835883  0.75401360  1
  Ta  Ta12  1  -0.19279815  0.55141819  0.04667712  1
  N  N13  1  0.20913897  0.93344618  0.26438845  1
  Zr  Zr14  1  -0.04994664  0.64756922  0.28927580  1
  N  N15  1  0.05591115  0.75507423  0.42031374  1
  Ta  Ta16  1  -0.04396431  0.70761006  0.53733811  1
  N  N17  1  0.36290778  0.80736394  0.83147814  1
  Ta  Ta18  1  0.46373304  -0.13720189  -0.01976628  1
  N  N19  1  0.31551055  0.24431293  0.28517610  1
  Ta  Ta20  1  0.20934606  0.10020235  0.27753321  1
  N  N21  1  0.64340902  0.23827182  0.59283110  1
  Ta  Ta22  1  0.47705910  -0.05996430  0.75469929  1
  N  N23  1  0.57540394  0.08330106  0.76055489  1
  Ta  Ta24  1  0.20949453  0.33150173  -0.13745086  1
  N  N25  1  0.44100661  0.49600344  0.27589562  1
  Ta  Ta26  1  0.27975656  0.39404811  0.24949421  1
  N  N27  1  0.41896260  0.51248221  0.58329491  1
  Ta  Ta28  1  0.40653464  0.44817828  0.73667113  1
  N  N29  1  0.49297909  0.58413755  0.81777022  1
  Ta  Ta30  1  0.36448520  0.65350560  -0.08713953  1
  N  N31  1  0.47322146  0.69968538  0.04095610  1
  Ta  Ta32  1  0.36624724  0.55622026  0.43099975  1
  N  N33  1  0.54151423  0.84632101  0.62637166  1
  Zr  Zr34  1  0.43123730  0.69660358  0.66391481  1
  C  C35  1  0.60748157  0.85743312  0.87473037  1
  Ta  Ta36  1  0.70263188  0.02839440  -0.13262055  1
  N  N37  1  0.90144433  0.26504041  0.10158309  1
  Ta  Ta38  1  0.79573833  -0.09017046  0.40596251  1
  N  N39  1  0.80677731  0.04881038  0.53567250  1
  Zr  Zr40  1  0.63004844  0.07015515  0.57169569  1
  C  C41  1  0.80680633  0.18657975  0.84450314  1
  Ta  Ta42  1  0.76328214  0.30160108  -0.00635314  1
  N  N43  1  0.92741427  0.51316937  0.15027059  1
  Ta  Ta44  1  0.57864864  0.46497546  0.34809799  1
  N  N45  1  0.88318865  0.58581410  0.44611310  1
  Zr  Zr46  1  0.64026791  0.26396818  0.75668343  1
  C  C47  1  0.85935489  0.44937706  0.91119783  1
  Ta  Ta48  1  0.60717524  0.68013289  -0.07850315  1
  N  N49  1  0.82051093  0.77167784  0.30746238  1
  Zr  Zr50  1  0.71671419  0.66955961  0.43920050  1
  C  C51  1  0.80073212  0.80359971  0.55953945  1
  Ta  Ta52  1  0.68619503  0.79914302  0.70826309  1
  N  N53  1  0.80604474  0.92587531  0.78356130  1
