# generated using pymatgen
data_Ta27C13N14
_symmetry_space_group_name_H-M   'P 1'
_cell_length_a   11.31496723
_cell_length_b   11.42172442
_cell_length_c   11.55821512
_cell_angle_alpha   90.41914571
_cell_angle_beta   91.04326522
_cell_angle_gamma   89.27577850
_symmetry_Int_Tables_number   1
_chemical_formula_structural   Ta27C13N14
_chemical_formula_sum   'Ta27 C13 N14'
_cell_volume   1493.33811983
_cell_formula_units_Z   1
loop_
 _symmetry_equiv_pos_site_id
 _symmetry_equiv_pos_as_xyz
  1  'x, y, z'
loop_
 _atom_site_type_symbol
 _atom_site_label
 _atom_site_symmetry_multiplicity
 _atom_site_fract_x
 _atom_site_fract_y
 _atom_site_fract_z
 _atom_site_occupancy
  Ta  Ta0  1  -0.16640760  0.01415683  0.00932334  1
  N  N1  1  0.24650693  0.24279238  0.17879081  1
  Ta  Ta2  1  -0.03267823  -0.08124934  0.33678221  1
  C  C3  1  0.12496943  0.05948036  0.53563323  1
  Ta  Ta4  1  0.04444006  -0.09474143  0.60872102  1
  C  C5  1  0.22512395  0.15912136  0.83427920  1
  Ta  Ta6  1  -0.04250410  0.23334065  0.02574976  1
  C  C7  1  0.11667856  0.54814762  0.12710124  1
  Ta  Ta8  1  0.09178238  0.36962322  0.18925671  1
  N  N9  1  0.26494669  0.63237353  0.38641380  1
  Ta  Ta10  1  0.09591413  0.31918200  0.80783685  1
  C  C11  1  0.11255736  0.35212402  0.99859707  1
  Ta  Ta12  1  -0.01082647  0.48871480  -0.02362927  1
  N  N13  1  0.15460250  0.88299957  0.32158508  1
  Ta  Ta14  1  0.12878926  0.73593723  0.42004753  1
  C  C15  1  0.20952846  0.80749293  0.56910869  1
  Ta  Ta16  1  -0.09027719  0.66830563  0.59750284  1
  N  N17  1  0.11472595  0.94032344  0.75395222  1
  Ta  Ta18  1  0.40747249  0.10671873  -0.11369304  1
  C  C19  1  0.66216473  0.19400119  0.18811430  1
  Ta  Ta20  1  0.24424572  -0.04593334  0.45039121  1
  N  N21  1  0.46501575  0.23637422  0.35889689  1
  Ta  Ta22  1  0.24438919  0.03033705  0.70623089  1
  C  C23  1  0.58882551  0.15807464  0.89923811  1
  Ta  Ta24  1  0.22817585  0.21202390  0.01012111  1
  N  N25  1  0.39177181  0.43321067  0.19509968  1
  Ta  Ta26  1  0.31959744  0.31042758  0.30978393  1
  C  C27  1  0.47988501  0.53305395  0.46636309  1
  Ta  Ta28  1  0.32773620  0.29791458  0.77060933  1
  N  N29  1  0.58375609  0.68454538  0.83395099  1
  Ta  Ta30  1  0.26980528  0.46453750  0.07158466  1
  N  N31  1  0.64090205  0.90489377  0.03513766  1
  Ta  Ta32  1  0.39671092  0.56846311  0.31028512  1
  N  N33  1  0.51515477  0.76841527  0.57489810  1
  Ta  Ta34  1  0.36318018  0.69520648  0.53621070  1
  C  C35  1  0.42221251  0.95608247  0.78406259  1
  Ta  Ta36  1  0.57442531  0.06056418  0.06433828  1
  C  C37  1  0.75406458  0.13182648  0.12490575  1
  Ta  Ta38  1  0.75304643  0.01531257  0.26559599  1
  N  N39  1  0.87000175  0.05171194  0.37828832  1
  Ta  Ta40  1  0.60444145  0.03400871  0.76724569  1
  C  C41  1  0.85727369  0.15685437  0.88718054  1
  Ta  Ta42  1  0.70307908  0.26670092  0.00403359  1
  N  N43  1  0.83560708  0.39013770  -0.00765524  1
  Ta  Ta44  1  0.55276369  0.32553888  0.25501694  1
  N  N45  1  0.74749799  0.63528983  0.57785840  1
  Ta  Ta46  1  0.84524238  0.34441642  0.81780372  1
  C  C47  1  0.96931648  0.48127634  0.78358536  1
  Ta  Ta48  1  0.54851280  0.84047551  -0.09914888  1
  N  N49  1  0.85913009  0.90319375  0.19342967  1
  Ta  Ta50  1  0.60363529  0.65954848  0.46560809  1
  C  C51  1  0.94294636  0.78610450  0.46943432  1
  Ta  Ta52  1  0.65274547  0.74132643  0.69846844  1
  N  N53  1  0.68739648  0.88924111  0.78967338  1
