# generated using pymatgen
data_Zr20Ta7C4N23
_symmetry_space_group_name_H-M   'P 1'
_cell_length_a   11.47031484
_cell_length_b   11.40388737
_cell_length_c   11.43294519
_cell_angle_alpha   89.59607183
_cell_angle_beta   90.59809388
_cell_angle_gamma   88.26797841
_symmetry_Int_Tables_number   1
_chemical_formula_structural   Zr20Ta7C4N23
_chemical_formula_sum   'Zr20 Ta7 C4 N23'
_cell_volume   1494.69458602
_cell_formula_units_Z   1
loop_
 _symmetry_equiv_pos_site_id
 _symmetry_equiv_pos_as_xyz
  1  'x, y, z'
loop_
 _atom_site_type_symbol
 _atom_site_label
 _atom_site_symmetry_multiplicity
 _atom_site_fract_x
 _atom_site_fract_y
 _atom_site_fract_z
 _atom_site_occupancy
  Ta  Ta0  1  -0.09642755  0.15209566  -0.12567414  1
  N  N1  1  0.25530054  0.20886336  0.19914570  1
  Zr  Zr2  1  -0.05280319  -0.14273303  0.33017650  1
  N  N3  1  0.28051060  0.23591869  0.45405933  1
  Zr  Zr4  1  -0.04802260  -0.07825676  0.60141000  1
  N  N5  1  0.03849215  0.24177550  0.89696942  1
  Zr  Zr6  1  0.07483482  0.36950322  0.01950874  1
  N  N7  1  0.12983231  0.49289931  0.15769149  1
  Ta  Ta8  1  -0.05060964  0.50191871  0.23160880  1
  N  N9  1  0.21665958  0.49455416  0.43464329  1
  Zr  Zr10  1  -0.00701850  0.37164607  0.76421397  1
  N  N11  1  0.02434752  0.49202182  0.88400780  1
  Zr  Zr12  1  0.10186207  0.63708760  -0.03435433  1
  N  N13  1  0.22510636  0.70063719  0.09180181  1
  Zr  Zr14  1  0.06975658  0.64585525  0.49329000  1
  N  N15  1  0.04347277  0.83425567  0.47963693  1
  Zr  Zr16  1  -0.07014706  0.64298301  0.73443927  1
  N  N17  1  0.21153816  0.66966990  0.83698539  1
  Zr  Zr18  1  0.42117054  -0.02176307  -0.02349956  1
  N  N19  1  0.49884978  0.17113563  0.24714904  1
  Zr  Zr20  1  0.33909127  0.11484099  0.33841490  1
  N  N21  1  0.52291070  0.15388542  0.37120945  1
  Zr  Zr22  1  0.48051082  -0.00705611  0.70330108  1
  N  N23  1  0.57113780  0.03790454  0.86140064  1
  Ta  Ta24  1  0.39865313  0.26480145  0.13541595  1
  N  N25  1  0.39174020  0.39994311  0.23806224  1
  Zr  Zr26  1  0.21376250  0.37413683  0.28579461  1
  N  N27  1  0.46508171  0.39262692  0.50984674  1
  Ta  Ta28  1  0.30346457  0.37917967  0.53138629  1
  N  N29  1  0.52271590  0.63573950  0.89543300  1
  Zr  Zr30  1  0.37991952  0.70743107  -0.01549199  1
  N  N31  1  0.45047990  0.84448653  0.06921870  1
  Ta  Ta32  1  0.14617497  0.66285798  0.22563766  1
  N  N33  1  0.61610274  0.86997023  0.65466776  1
  Zr  Zr34  1  0.27405339  0.74625864  0.70100088  1
  C  C35  1  0.38137923  0.85970071  0.81957604  1
  Zr  Zr36  1  0.64729503  0.12505979  -0.00230515  1
  N  N37  1  0.81896175  0.17641371  0.01439231  1
  Zr  Zr38  1  0.68843655  -0.00661149  0.49853451  1
  N  N39  1  0.80374137  0.06407628  0.64938920  1
  Zr  Zr40  1  0.74325494  -0.05210721  0.79605780  1
  C  C41  1  0.81448939  0.30388417  0.80658958  1
  Zr  Zr42  1  0.76729192  0.36772602  -0.00534087  1
  N  N43  1  0.90841917  0.42184258  0.08705493  1
  Zr  Zr44  1  0.53056987  0.34425531  0.35610138  1
  N  N45  1  0.89225140  0.62302342  0.56448086  1
  Zr  Zr46  1  0.69684369  0.20187223  0.69512769  1
  C  C47  1  0.77112339  0.41609262  0.79396171  1
  Ta  Ta48  1  0.54160172  0.75278181  -0.21473174  1
  N  N49  1  0.98512444  0.66452314  0.30827430  1
  Zr  Zr50  1  0.80912123  0.63787238  0.39887938  1
  C  C51  1  0.77582371  0.83283349  0.43288335  1
  Ta  Ta52  1  0.72743766  0.76075480  0.60311346  1
  N  N53  1  0.85432915  0.80893150  0.71945395  1
