# generated using pymatgen
data_Zr13Ta14(C8N)3
_symmetry_space_group_name_H-M   'P 1'
_cell_length_a   10.95095972
_cell_length_b   10.95923796
_cell_length_c   10.97828012
_cell_angle_alpha   90.17750787
_cell_angle_beta   89.66027675
_cell_angle_gamma   90.64724010
_symmetry_Int_Tables_number   1
_chemical_formula_structural   Zr13Ta14(C8N)3
_chemical_formula_sum   'Zr13 Ta14 C24 N3'
_cell_volume   1317.43593778
_cell_formula_units_Z   1
loop_
 _symmetry_equiv_pos_site_id
 _symmetry_equiv_pos_as_xyz
  1  'x, y, z'
loop_
 _atom_site_type_symbol
 _atom_site_label
 _atom_site_symmetry_multiplicity
 _atom_site_fract_x
 _atom_site_fract_y
 _atom_site_fract_z
 _atom_site_occupancy
  Ta  Ta0  1  0.00862669  0.05709954  -0.09237434  1
  C  C1  1  0.12005715  0.22453960  0.17947793  1
  Zr  Zr2  1  0.09008655  -0.00900364  0.43556571  1
  C  C3  1  0.27407690  0.12427885  0.43107950  1
  Zr  Zr4  1  -0.09127251  -0.02106162  0.65596879  1
  C  C5  1  0.17876498  0.16186442  0.89106122  1
  Zr  Zr6  1  0.03884889  0.31423234  -0.00363656  1
  C  C7  1  -0.00021318  0.48334054  0.12777863  1
  Ta  Ta8  1  -0.03543585  0.35221149  0.26180416  1
  C  C9  1  0.15803606  0.67679736  0.42423494  1
  Zr  Zr10  1  -0.05213534  0.26075995  0.71074852  1
  C  C11  1  0.26099634  0.57035407  0.92035917  1
  Ta  Ta12  1  0.09461524  0.60472019  0.02289097  1
  C  C13  1  0.14930926  0.77044476  0.11844535  1
  Zr  Zr14  1  -0.05705297  0.68319075  0.38690120  1
  C  C15  1  0.17334854  0.80526672  0.42527779  1
  Ta  Ta16  1  0.09275130  0.77773958  0.60520465  1
  C  C17  1  0.23295723  0.85481559  0.83644634  1
  Zr  Zr18  1  0.29737074  0.00104848  -0.02999150  1
  C  C19  1  0.39072596  0.12126571  0.12931107  1
  Ta  Ta20  1  0.24483194  0.06494434  0.23635635  1
  C  C21  1  0.59164505  0.26703047  0.47541203  1
  Zr  Zr22  1  0.21467634  0.01824357  0.71226584  1
  C  C23  1  0.59558411  0.15748430  0.88819983  1
  Ta  Ta24  1  0.27742622  0.25080730  0.05729613  1
  N  N25  1  0.64963093  0.50475934  0.27063362  1
  Zr  Zr26  1  0.21716413  0.30269299  0.34324848  1
  C  C27  1  0.57587362  0.37707460  0.55574382  1
  Ta  Ta28  1  0.40695807  0.24790224  0.51436156  1
  C  C29  1  0.68885732  0.65717191  0.72537393  1
  Ta  Ta30  1  0.30971847  0.74500473  -0.00861186  1
  C  C31  1  0.48229555  0.85530092  0.04929607  1
  Ta  Ta32  1  0.25700461  0.74564140  0.26093064  1
  N  N33  1  0.42286606  0.84017761  0.63919205  1
  Zr  Zr34  1  0.34168626  0.72428600  0.71799826  1
  C  C35  1  0.49650960  0.90544695  0.92986036  1
  Zr  Zr36  1  0.56576780  0.05946727  0.06351802  1
  C  C37  1  0.79526882  0.26841219  0.25774440  1
  Ta  Ta38  1  0.64734928  0.17258396  0.30689946  1
  C  C39  1  0.68002707  0.16811364  0.48989483  1
  Zr  Zr40  1  0.65919533  -0.03638036  0.80768231  1
  C  C41  1  0.84357378  0.09875621  0.80152449  1
  Ta  Ta42  1  0.77115109  0.22623729  -0.07365833  1
  C  C43  1  0.91554590  0.46673677  0.41136534  1
  Ta  Ta44  1  0.71299871  0.40587695  0.38752759  1
  C  C45  1  0.85372731  0.50842120  0.50966821  1
  Zr  Zr46  1  0.64400424  0.21951052  0.69030798  1
  C  C47  1  0.77948340  0.36202658  0.78227190  1
  Ta  Ta48  1  0.57156765  0.72321338  -0.07577813  1
  N  N49  1  0.82706827  0.71069381  0.25055630  1
  Zr  Zr50  1  0.79177579  0.56381272  0.16091745  1
  C  C51  1  0.93572739  0.84406409  0.51402115  1
  Ta  Ta52  1  0.72623313  0.48823911  0.65249003  1
  C  C53  1  0.68234480  0.77234130  0.75893633  1
