# generated using pymatgen
data_Zr9C7N2
_symmetry_space_group_name_H-M   'P 1'
_cell_length_a   10.92954463
_cell_length_b   11.10238538
_cell_length_c   10.80891245
_cell_angle_alpha   90.49642936
_cell_angle_beta   91.05846816
_cell_angle_gamma   89.43312398
_symmetry_Int_Tables_number   1
_chemical_formula_structural   Zr9C7N2
_chemical_formula_sum   'Zr27 C21 N6'
_cell_volume   1311.26167753
_cell_formula_units_Z   3
loop_
 _symmetry_equiv_pos_site_id
 _symmetry_equiv_pos_as_xyz
  1  'x, y, z'
loop_
 _atom_site_type_symbol
 _atom_site_label
 _atom_site_symmetry_multiplicity
 _atom_site_fract_x
 _atom_site_fract_y
 _atom_site_fract_z
 _atom_site_occupancy
  Zr  Zr0  1  0.05435740  0.11769816  0.00916888  1
  N  N1  1  0.25798042  0.13385404  -0.00135591  1
  Zr  Zr2  1  0.11048204  0.03500642  0.40324932  1
  C  C3  1  0.14129434  -0.06099763  0.58231241  1
  Zr  Zr4  1  -0.03845455  -0.04973852  0.69368490  1
  C  C5  1  0.09492624  0.05822609  0.81838363  1
  Zr  Zr6  1  -0.04673741  0.42938527  -0.03938413  1
  C  C7  1  0.16428308  0.73344799  0.19326451  1
  Zr  Zr8  1  -0.08513180  0.35394556  0.24640123  1
  N  N9  1  -0.03822842  0.54356164  0.45935569  1
  Zr  Zr10  1  0.00443310  0.23499864  0.73897217  1
  C  C11  1  0.20541645  0.53543673  0.94602045  1
  Zr  Zr12  1  0.06698016  0.66137294  0.02441381  1
  C  C13  1  0.21121243  0.81523595  0.10216684  1
  Zr  Zr14  1  0.07625779  0.59605295  0.31084527  1
  C  C15  1  0.07482781  0.85867967  0.50607607  1
  Zr  Zr16  1  0.01751879  0.68625365  0.59369138  1
  C  C17  1  0.38538896  0.77943019  0.85868638  1
  Zr  Zr18  1  0.24960551  -0.08455834  -0.08335737  1
  C  C19  1  0.47022494  0.13025183  0.21528105  1
  Zr  Zr20  1  0.29112033  0.03834215  0.17795355  1
  C  C21  1  0.61916318  0.16550672  0.47051116  1
  Zr  Zr22  1  0.24480660  0.08171917  0.68251845  1
  C  C23  1  0.57637691  0.19049045  0.84202487  1
  Zr  Zr24  1  0.22819982  0.33131684  -0.05709390  1
  N  N25  1  0.49796629  0.52019443  0.07234489  1
  Zr  Zr26  1  0.42159960  0.13256952  0.41827674  1
  C  C27  1  0.62745960  0.52999169  0.49188042  1
  Zr  Zr28  1  0.43905032  0.30339380  0.73998272  1
  C  C29  1  0.52833979  0.47511509  0.76703780  1
  Zr  Zr30  1  0.35714565  0.63843069  0.06478672  1
  C  C31  1  0.33677761  0.84814259  0.12552649  1
  Zr  Zr32  1  0.30826091  0.79780232  0.33014842  1
  N  N33  1  0.29488039  0.98362167  0.37397994  1
  Zr  Zr34  1  0.33179445  0.57325452  0.79131982  1
  C  C35  1  0.48541494  0.71152228  0.87564603  1
  Zr  Zr36  1  0.44828439  0.15436386  0.00534658  1
  C  C37  1  0.72670940  0.30173407  0.20571809  1
  Zr  Zr38  1  0.66359984  0.11952015  0.25709579  1
  C  C39  1  0.70499251  0.22857955  0.54212029  1
  Zr  Zr40  1  0.63150533  0.09385071  0.67952535  1
  C  C41  1  0.90360361  0.22718422  0.93220431  1
  Zr  Zr42  1  0.70305818  0.27056706  -0.00706354  1
  C  C43  1  0.97729936  0.51622179  0.14887856  1
  Zr  Zr44  1  0.64024022  0.36273981  0.38611638  1
  C  C45  1  0.73365249  0.52856362  0.56751666  1
  Zr  Zr46  1  0.71370170  0.37605797  0.69832461  1
  C  C47  1  0.83638929  0.29332726  0.84171318  1
  Zr  Zr48  1  0.60935400  0.56175835  -0.05653719  1
  N  N49  1  0.92897835  0.75826528  0.38326501  1
  Zr  Zr50  1  0.80505009  0.61506792  0.39524625  1
  C  C51  1  0.99843939  0.85121689  0.39769609  1
  Zr  Zr52  1  0.58158640  0.63574848  0.65978381  1
  N  N53  1  0.92856178  0.77627587  0.71832908  1
