# generated using pymatgen
data_C3N29
_symmetry_space_group_name_H-M   'P 1'
_cell_length_a   18.00884749
_cell_length_b   18.00814305
_cell_length_c   18.00816641
_cell_angle_alpha   90.00004058
_cell_angle_beta   89.99995898
_cell_angle_gamma   90.00000058
_symmetry_Int_Tables_number   1
_chemical_formula_structural   C3N29
_chemical_formula_sum   'C6 N58'
_cell_volume   5840.15464726
_cell_formula_units_Z   2
loop_
 _symmetry_equiv_pos_site_id
 _symmetry_equiv_pos_as_xyz
  1  'x, y, z'
loop_
 _atom_site_type_symbol
 _atom_site_label
 _atom_site_symmetry_multiplicity
 _atom_site_fract_x
 _atom_site_fract_y
 _atom_site_fract_z
 _atom_site_occupancy
  N  N0  1  0.00221380  -0.00000573  -0.00000849  1
  N  N1  1  0.00002950  0.00000348  0.24998463  1
  N  N2  1  0.00000883  -0.00001702  0.50001809  1
  N  N3  1  0.00221013  0.00000293  0.75000564  1
  N  N4  1  -0.00000013  0.25000193  0.00000172  1
  N  N5  1  -0.00000039  0.25000202  0.25000343  1
  N  N6  1  0.00000372  0.25000135  0.49999829  1
  N  N7  1  -0.00001619  0.24998384  0.74999656  1
  N  N8  1  -0.00220945  0.50000590  -0.00000001  1
  N  N9  1  0.00001608  0.49999653  0.24998393  1
  N  N10  1  -0.00001927  0.50001696  0.50000002  1
  N  N11  1  0.00001803  0.49999694  0.75001606  1
  N  N12  1  -0.00221309  0.74999789  0.00000131  1
  N  N13  1  -0.00000090  0.74999798  0.25000470  1
  N  N14  1  0.00216284  0.74999879  0.49999880  1
  N  N15  1  0.00002337  0.75001622  0.74999526  1
  N  N16  1  0.24997356  0.00220740  0.00000897  1
  N  N17  1  0.24783168  -0.00000550  0.24999790  1
  N  N18  1  0.25001606  0.00000470  0.49998116  1
  N  N19  1  0.24999816  -0.00001577  0.75001207  1
  N  N20  1  0.24999864  0.24780534  -0.00000178  1
  N  N21  1  0.25001695  0.24999938  0.24998568  1
  N  N22  1  0.24999826  0.24999944  0.50000176  1
  N  N23  1  0.25000001  0.25001823  0.75001433  1
  C  C24  1  0.24999998  0.49969516  -0.00000000  1
  N  N25  1  0.24999751  0.50000596  0.25221193  1
  N  N26  1  0.25000000  0.49999530  0.50000000  1
  N  N27  1  0.25000000  0.50000631  0.74778810  1
  C  C28  1  0.24999392  0.75029233  -0.00000532  1
  N  N29  1  0.25000621  0.75000017  0.25221286  1
  N  N30  1  0.24999786  0.75000055  0.50000217  1
  N  N31  1  0.25000001  0.74999123  0.74779018  1
  N  N32  1  0.49774775  -0.00000119  -0.00220956  1
  C  C33  1  0.49994249  0.00001067  0.25005322  1
  N  N34  1  0.49997737  -0.00000670  0.50217407  1
  N  N35  1  0.49778479  0.00000296  0.74997316  1
  N  N36  1  0.50000018  0.25002489  0.00001871  1
  N  N37  1  0.50000054  0.25216369  0.25000293  1
  N  N38  1  0.49999626  0.24998523  0.49998133  1
  N  N39  1  0.50001619  0.24998556  0.74999697  1
  N  N40  1  0.50220951  0.50000545  -0.00000250  1
  N  N41  1  0.49998406  0.49999576  0.24998407  1
  N  N42  1  0.50001927  0.50001653  0.50000235  1
  N  N43  1  0.49998199  0.49999694  0.75001606  1
  N  N44  1  0.50221747  0.74997070  0.00000761  1
  N  N45  1  0.50000109  0.74783003  0.25000425  1
  N  N46  1  0.49783402  0.75000499  0.49999259  1
  N  N47  1  0.49997663  0.75001448  0.74999557  1
  C  C48  1  0.75005597  0.00001317  0.00024423  1
  N  N49  1  0.75220541  -0.00000238  0.25223964  1
  N  N50  1  0.74999765  0.00220537  0.49776046  1
  C  C51  1  0.75000672  0.00005553  0.74975571  1
  N  N52  1  0.75000123  0.25220990  -0.00000768  1
  N  N53  1  0.74998298  0.25000886  0.24998191  1
  N  N54  1  0.75000177  0.25003163  0.50001745  1
  N  N55  1  0.74999998  0.25221167  0.75000844  1
  N  N56  1  0.74999999  0.49999612  0.00000194  1
  N  N57  1  0.75000234  0.50001606  0.25002162  1
  N  N58  1  0.74999999  0.49783492  0.49999803  1
  N  N59  1  0.74999998  0.49997219  0.74997835  1
  N  N60  1  0.75000168  0.74778045  0.00002532  1
  N  N61  1  0.74999367  0.74997736  0.24782805  1
  C  C62  1  0.75000536  0.74993710  0.49995296  1
  N  N63  1  0.74999998  0.74775181  0.75220279  1
