# generated using pymatgen
data_Zr11Ta16N27
_symmetry_space_group_name_H-M   'P 1'
_cell_length_a   11.56854398
_cell_length_b   11.59740452
_cell_length_c   11.74464954
_cell_angle_alpha   89.70147959
_cell_angle_beta   91.09033514
_cell_angle_gamma   88.85574865
_symmetry_Int_Tables_number   1
_chemical_formula_structural   Zr11Ta16N27
_chemical_formula_sum   'Zr11 Ta16 N27'
_cell_volume   1575.09779714
_cell_formula_units_Z   1
loop_
 _symmetry_equiv_pos_site_id
 _symmetry_equiv_pos_as_xyz
  1  'x, y, z'
loop_
 _atom_site_type_symbol
 _atom_site_label
 _atom_site_symmetry_multiplicity
 _atom_site_fract_x
 _atom_site_fract_y
 _atom_site_fract_z
 _atom_site_occupancy
  Ta  Ta0  1  0.09032367  0.05309319  -0.02494147  1
  N  N1  1  0.16667290  0.01088344  0.11881569  1
  Zr  Zr2  1  0.03901795  -0.09317147  0.41347047  1
  N  N3  1  0.11051205  0.21308888  0.64754072  1
  Zr  Zr4  1  0.01706053  0.07663873  0.64841139  1
  N  N5  1  0.21660365  0.09993000  0.88156904  1
  Ta  Ta6  1  -0.08763903  0.20534179  -0.14921383  1
  N  N7  1  0.06563157  0.55235091  0.27657577  1
  Ta  Ta8  1  -0.04181976  0.45546473  0.37489510  1
  N  N9  1  0.23053567  0.57309644  0.50489344  1
  Zr  Zr10  1  0.06759330  0.38102046  0.64608289  1
  N  N11  1  0.21025567  0.45530796  0.73533377  1
  Ta  Ta12  1  0.18050907  0.68073883  0.22348215  1
  N  N13  1  0.07359310  0.81623713  0.25005350  1
  Zr  Zr14  1  -0.07768525  0.69115267  0.24812172  1
  N  N15  1  0.15792995  0.80143552  0.51474919  1
  Ta  Ta16  1  0.05861940  0.66101032  0.48211696  1
  N  N17  1  0.28069084  0.78556417  0.77043417  1
  Zr  Zr18  1  0.33284341  -0.05294360  0.05014586  1
  N  N19  1  0.42171591  0.10367828  0.04903986  1
  Ta  Ta20  1  0.21351464  -0.08801272  0.24917180  1
  N  N21  1  0.62342201  0.29712805  0.67714969  1
  Zr  Zr22  1  0.26253565  -0.03137916  0.75342809  1
  N  N23  1  0.53200036  0.12980886  0.82111005  1
  Ta  Ta24  1  0.37964056  0.15768051  -0.09704587  1
  N  N25  1  0.55096931  0.61543412  0.15894682  1
  Ta  Ta26  1  0.20560299  0.49423969  0.36694690  1
  N  N27  1  0.57739997  0.54640969  0.44373799  1
  Ta  Ta28  1  0.36062240  0.38714364  0.75069300  1
  N  N29  1  0.44056975  0.50852184  0.67040208  1
  Ta  Ta30  1  0.42168161  0.79144400  -0.13877158  1
  N  N31  1  0.49370352  0.84703521  0.05826457  1
  Ta  Ta32  1  0.29290987  0.73442353  0.43782337  1
  N  N33  1  0.41073609  0.72850517  0.55566341  1
  Zr  Zr34  1  0.27731497  0.62724615  0.67762227  1
  N  N35  1  0.40486115  0.95981497  0.87126028  1
  Zr  Zr36  1  0.57904381  -0.00814256  -0.03596614  1
  N  N37  1  1.00393604  0.19212415  -0.00953199  1
  Ta  Ta38  1  0.78356172  -0.12283319  0.34268489  1
  N  N39  1  0.84788838  0.12984465  0.67839070  1
  Zr  Zr40  1  0.69485538  0.05566316  0.74242475  1
  N  N41  1  0.74672291  0.19190178  0.87708244  1
  Ta  Ta42  1  0.60237563  0.28009694  -0.16702171  1
  N  N43  1  0.81030736  0.56212423  0.33230250  1
  Ta  Ta44  1  0.74606262  0.49658514  0.47018697  1
  N  N45  1  0.90018105  0.41122035  0.52932234  1
  Zr  Zr46  1  0.80069455  0.30804978  0.64490910  1
  N  N47  1  0.93931635  0.34584393  0.77202749  1
  Ta  Ta48  1  0.59428074  0.71872074  0.05026414  1
  N  N49  1  0.74901159  0.78681855  0.20920103  1
  Zr  Zr50  1  0.63913103  0.66038689  0.30260783  1
  N  N51  1  0.90250117  0.78229392  0.41987291  1
  Ta  Ta52  1  0.53270596  0.61680107  0.58422617  1
  N  N53  1  0.66697428  0.91713854  0.83903732  1
