# generated using pymatgen
data_Ta9C8N
_symmetry_space_group_name_H-M   'P 1'
_cell_length_a   10.60388026
_cell_length_b   10.60302378
_cell_length_c   10.60497361
_cell_angle_alpha   93.03852693
_cell_angle_beta   86.99122639
_cell_angle_gamma   93.01788019
_symmetry_Int_Tables_number   1
_chemical_formula_structural   Ta9C8N
_chemical_formula_sum   'Ta27 C24 N3'
_cell_volume   1187.54593480
_cell_formula_units_Z   3
loop_
 _symmetry_equiv_pos_site_id
 _symmetry_equiv_pos_as_xyz
  1  'x, y, z'
loop_
 _atom_site_type_symbol
 _atom_site_label
 _atom_site_symmetry_multiplicity
 _atom_site_fract_x
 _atom_site_fract_y
 _atom_site_fract_z
 _atom_site_occupancy
  Ta  Ta0  1  0.10223316  0.03372639  -0.03315471  1
  C  C1  1  0.21956182  0.11333865  0.35759364  1
  Ta  Ta2  1  0.08202670  -0.03119854  0.43953044  1
  C  C3  1  0.24988052  0.08411385  0.49453591  1
  Ta  Ta4  1  0.03667241  0.06526687  0.70658624  1
  C  C5  1  0.15719419  0.17614573  0.82369136  1
  Ta  Ta6  1  0.04045196  0.29682407  -0.06555596  1
  C  C7  1  0.11296041  0.56826282  0.22995726  1
  Ta  Ta8  1  -0.08301260  0.41748388  0.20238110  1
  C  C9  1  0.15679443  0.65628644  0.33120098  1
  Ta  Ta10  1  -0.04904635  0.38182414  0.61782257  1
  C  C11  1  0.24890559  0.50553626  0.91678028  1
  Ta  Ta12  1  0.08380298  0.56135160  0.03468262  1
  C  C13  1  0.31713478  0.84291589  0.15991293  1
  Ta  Ta14  1  -0.02092377  0.58756694  0.41690727  1
  C  C15  1  0.10356107  0.75904117  0.41255606  1
  Ta  Ta16  1  -0.08424154  0.79688211  0.58374950  1
  C  C17  1  0.21960399  0.64243200  0.88647275  1
  Ta  Ta18  1  0.34445434  -0.01120955  0.01112206  1
  C  C19  1  0.49354786  0.01613897  0.15698054  1
  Ta  Ta20  1  0.35920286  -0.02418100  0.31625951  1
  C  C21  1  0.55985584  0.22136516  0.44123509  1
  Ta  Ta22  1  0.29957901  0.03311960  0.76882348  1
  C  C23  1  0.69074649  0.11271927  0.88602667  1
  Ta  Ta24  1  0.30020687  0.23110315  -0.03393835  1
  N  N25  1  0.54976307  0.54885014  0.21604701  1
  Ta  Ta26  1  0.36654730  0.25096858  0.43856249  1
  C  C27  1  0.34428441  0.42470089  0.57011982  1
  Ta  Ta28  1  0.26799498  0.29324719  0.70331819  1
  C  C29  1  0.57242586  0.58593602  0.76841645  1
  Ta  Ta30  1  0.35757485  0.68347486  0.02586338  1
  C  C31  1  0.45712908  0.87629069  0.12379586  1
  Ta  Ta32  1  0.12685945  0.81064729  0.20472334  1
  N  N33  1  0.54941680  0.78342236  0.45128326  1
  Ta  Ta34  1  0.36380307  0.56058192  0.74787230  1
  C  C35  1  0.49045202  0.83999124  0.98378163  1
  Ta  Ta36  1  0.64986011  -0.02612453  0.02412657  1
  C  C37  1  0.75336973  0.23776317  0.23176002  1
  Ta  Ta38  1  0.54445897  0.20614852  0.19103614  1
  C  C39  1  0.65458987  0.17136432  0.35460616  1
  Ta  Ta40  1  0.77211950  -0.03459507  0.74953074  1
  C  C41  1  0.82789418  0.08262522  0.91548109  1
  Ta  Ta42  1  0.77264453  0.25390674  0.02861491  1
  C  C43  1  0.90942970  0.43087703  0.00967715  1
  Ta  Ta44  1  0.74960106  0.35021512  0.40780674  1
  C  C45  1  0.83327418  0.49738895  0.50115657  1
  Ta  Ta46  1  0.53637459  0.41621581  0.58248312  1
  C  C47  1  0.67943903  0.67157608  0.82462674  1
  Ta  Ta48  1  0.52298824  0.79324020  -0.20641344  1
  N  N49  1  0.78458710  0.78411880  0.21637039  1
  Ta  Ta50  1  0.70561126  0.62732756  0.37258523  1
  C  C51  1  0.90360570  0.98869621  0.57503335  1
  Ta  Ta52  1  0.74454786  0.58335056  0.64683772  1
  C  C53  1  0.76820051  0.77093824  0.77873778  1
