# generated using pymatgen
data_Zr2Ta7N9
_symmetry_space_group_name_H-M   'P 1'
_cell_length_a   11.53826161
_cell_length_b   11.47470790
_cell_length_c   11.58841704
_cell_angle_alpha   90.01836517
_cell_angle_beta   90.49423948
_cell_angle_gamma   89.21698987
_symmetry_Int_Tables_number   1
_chemical_formula_structural   Zr2Ta7N9
_chemical_formula_sum   'Zr6 Ta21 N27'
_cell_volume   1534.08496444
_cell_formula_units_Z   3
loop_
 _symmetry_equiv_pos_site_id
 _symmetry_equiv_pos_as_xyz
  1  'x, y, z'
loop_
 _atom_site_type_symbol
 _atom_site_label
 _atom_site_symmetry_multiplicity
 _atom_site_fract_x
 _atom_site_fract_y
 _atom_site_fract_z
 _atom_site_occupancy
  Ta  Ta0  1  0.04892043  0.05699129  0.08139656  1
  N  N1  1  0.18891241  0.14709476  0.16577530  1
  Zr  Zr2  1  -0.12503027  0.07454445  0.29936528  1
  N  N3  1  0.04546787  0.11507501  0.39810801  1
  Ta  Ta4  1  -0.00884062  0.00249075  0.53641643  1
  N  N5  1  0.16605423  0.27362112  0.90506027  1
  Ta  Ta6  1  0.02815241  0.28379153  0.01352306  1
  N  N7  1  0.08092845  0.39414003  0.15898299  1
  Ta  Ta8  1  0.02776805  0.26217892  0.27858982  1
  N  N9  1  0.14667291  0.60942400  0.50431105  1
  Ta  Ta10  1  -0.06794550  0.22420381  0.69094677  1
  N  N11  1  0.28082325  0.49212384  0.82370516  1
  Ta  Ta12  1  -0.08954588  0.45840292  0.15435144  1
  N  N13  1  0.04913652  0.95045412  0.20871447  1
  Zr  Zr14  1  -0.03112982  0.78438587  0.25222625  1
  N  N15  1  0.12125911  0.83006178  0.38405696  1
  Ta  Ta16  1  0.02567444  0.74094411  0.51071333  1
  N  N17  1  0.24989747  0.72256140  0.78801019  1
  Ta  Ta18  1  0.27067173  0.17969644  0.00877415  1
  N  N19  1  0.35844459  0.32278177  0.06899755  1
  Ta  Ta20  1  0.15969522  0.03213139  0.31114066  1
  N  N21  1  0.60357186  0.18238411  0.60639509  1
  Ta  Ta22  1  0.35182042  -0.16797348  0.72415876  1
  N  N23  1  0.66643316  0.24470158  0.90400050  1
  Ta  Ta24  1  0.24499813  0.41847162  -0.03072757  1
  N  N25  1  0.73842129  0.48811304  0.23267535  1
  Ta  Ta26  1  0.23828731  0.32235206  0.20278775  1
  N  N27  1  0.40535838  0.50966162  0.61930641  1
  Ta  Ta28  1  0.44021852  0.43512320  0.77491901  1
  N  N29  1  0.51331192  0.52274362  0.89125700  1
  Ta  Ta30  1  0.39149580  0.64230256  -0.10985787  1
  N  N31  1  0.69028167  0.72795881  0.24825390  1
  Ta  Ta32  1  0.24989998  0.72445329  0.43036711  1
  N  N33  1  0.34617704  0.78180673  0.55497177  1
  Zr  Zr34  1  0.22833480  0.58342083  0.67108832  1
  N  N35  1  0.47856978  0.76408816  0.81085007  1
  Ta  Ta36  1  0.73121893  0.07838000  -0.11416662  1
  N  N37  1  0.93821657  0.17407867  0.14248035  1
  Ta  Ta38  1  0.81543194  -0.14289085  0.45509497  1
  N  N39  1  0.87320010  0.12567018  0.55289904  1
  Zr  Zr40  1  0.70501792  0.04458454  0.61821392  1
  N  N41  1  0.80176009  0.14946249  0.75386626  1
  Ta  Ta42  1  0.81263896  0.33037558  -0.08201626  1
  N  N43  1  0.91572819  0.62887366  0.15070653  1
  Ta  Ta44  1  0.79889991  0.36716559  0.36910404  1
  N  N45  1  0.74475818  0.46325534  0.48395176  1
  Zr  Zr46  1  0.66713711  0.30008411  0.70972884  1
  N  N47  1  0.85718545  0.36194136  0.74929589  1
  Ta  Ta48  1  0.74028764  0.63289586  0.13465086  1
  N  N49  1  0.83672305  0.90406903  0.29764206  1
  Zr  Zr50  1  0.71456423  0.62351552  0.40024831  1
  N  N51  1  0.89485310  0.68659498  0.41670717  1
  Ta  Ta52  1  0.47558719  0.65772652  0.60433596  1
  N  N53  1  0.66362435  0.97751037  0.78364561  1
