# generated using pymatgen
data_Zr3Ta24C13N14
_symmetry_space_group_name_H-M   'P 1'
_cell_length_a   11.27496168
_cell_length_b   11.30841915
_cell_length_c   11.35353992
_cell_angle_alpha   90.55112491
_cell_angle_beta   90.30379646
_cell_angle_gamma   89.28804285
_symmetry_Int_Tables_number   1
_chemical_formula_structural   Zr3Ta24C13N14
_chemical_formula_sum   'Zr3 Ta24 C13 N14'
_cell_volume   1447.40079885
_cell_formula_units_Z   1
loop_
 _symmetry_equiv_pos_site_id
 _symmetry_equiv_pos_as_xyz
  1  'x, y, z'
loop_
 _atom_site_type_symbol
 _atom_site_label
 _atom_site_symmetry_multiplicity
 _atom_site_fract_x
 _atom_site_fract_y
 _atom_site_fract_z
 _atom_site_occupancy
  Ta  Ta0  1  -0.05654382  0.16225722  0.00657391  1
  N  N1  1  0.12975253  0.06401647  0.23946156  1
  Ta  Ta2  1  -0.00769432  -0.05674433  0.31631982  1
  C  C3  1  0.13705739  0.04124702  0.48673376  1
  Ta  Ta4  1  -0.02616757  -0.00845101  0.55829844  1
  C  C5  1  0.13320851  0.20835524  0.93020509  1
  Ta  Ta6  1  0.06089896  0.40110575  0.04765787  1
  C  C7  1  0.13701004  0.58301238  0.01338198  1
  Ta  Ta8  1  0.10670118  0.24009574  0.22018676  1
  N  N9  1  0.22176912  0.67943643  0.51213756  1
  Ta  Ta10  1  0.00303050  0.30852816  0.80107790  1
  C  C11  1  0.17828725  0.33051557  0.90628552  1
  Ta  Ta12  1  -0.04895092  0.60176409  -0.02042402  1
  N  N13  1  0.11161969  0.82310406  0.26876517  1
  Ta  Ta14  1  0.09257051  0.70628875  0.37510958  1
  C  C15  1  0.18161691  0.96954271  0.57227691  1
  Ta  Ta16  1  0.12834112  0.77946278  0.61760472  1
  N  N17  1  0.17966624  0.66997461  0.74823139  1
  Ta  Ta18  1  0.46381791  0.10339777  -0.09281728  1
  C  C19  1  0.50262719  0.18998290  0.07410377  1
  Ta  Ta20  1  0.24718920  0.08494637  0.35547125  1
  N  N21  1  0.61140687  0.16162943  0.33051127  1
  Ta  Ta22  1  0.30159203  -0.01388088  0.70724868  1
  C  C23  1  0.65285411  0.11181631  0.88076764  1
  Ta  Ta24  1  0.31311785  0.26197696  0.04114442  1
  N  N25  1  0.46886728  0.42733891  0.35674980  1
  Ta  Ta26  1  0.31801245  0.33355843  0.28339059  1
  C  C27  1  0.46244982  0.67582569  0.48256373  1
  Ta  Ta28  1  0.25503758  0.20020232  0.77769201  1
  N  N29  1  0.52126361  0.64052536  0.79192644  1
  Ta  Ta30  1  0.16457002  0.52426327  -0.15817808  1
  N  N31  1  0.59262344  0.87614707  0.03644127  1
  Ta  Ta32  1  0.32637461  0.55285637  0.42928200  1
  N  N33  1  0.51176458  0.74779619  0.56089311  1
  Zr  Zr34  1  0.36439144  0.67932374  0.69091691  1
  C  C35  1  0.43571178  0.91696720  0.81085963  1
  Ta  Ta36  1  0.65260633  0.03344695  0.06447872  1
  C  C37  1  0.81063452  0.15634986  0.12974265  1
  Ta  Ta38  1  0.78171929  0.10093585  0.30127706  1
  N  N39  1  0.90583206  0.08168589  0.43230365  1
  Zr  Zr40  1  0.61460201  -0.01521591  0.72920272  1
  C  C41  1  0.84725199  0.26207077  0.88474421  1
  Ta  Ta42  1  0.70110117  0.26289762  0.01023624  1
  N  N43  1  0.90246600  0.48874309  0.08255589  1
  Ta  Ta44  1  0.54819340  0.27855470  0.23445119  1
  N  N45  1  0.64505369  0.52717884  0.57948359  1
  Zr  Zr46  1  0.69895714  0.26082484  0.76015472  1
  C  C47  1  0.97411586  0.49507996  0.82570317  1
  Ta  Ta48  1  0.54751951  0.80143637  -0.10703666  1
  N  N49  1  0.81827122  0.94291713  0.25394846  1
  Ta  Ta50  1  0.58166541  0.53861726  0.42635630  1
  C  C51  1  0.98145091  0.81299853  0.48748945  1
  Ta  Ta52  1  0.63391749  0.68007730  0.67105129  1
  N  N53  1  0.67879687  0.81321588  0.77500623  1
