# generated using pymatgen
data_Zr13Ta51
_symmetry_space_group_name_H-M   'P 1'
_cell_length_a   15.05986322
_cell_length_b   15.11666938
_cell_length_c   15.25022611
_cell_angle_alpha   89.80018598
_cell_angle_beta   89.42775347
_cell_angle_gamma   90.18570379
_symmetry_Int_Tables_number   1
_chemical_formula_structural   Zr13Ta51
_chemical_formula_sum   'Zr13 Ta51'
_cell_volume   3471.57691914
_cell_formula_units_Z   1
loop_
 _symmetry_equiv_pos_site_id
 _symmetry_equiv_pos_as_xyz
  1  'x, y, z'
loop_
 _atom_site_type_symbol
 _atom_site_label
 _atom_site_symmetry_multiplicity
 _atom_site_fract_x
 _atom_site_fract_y
 _atom_site_fract_z
 _atom_site_occupancy
  Ta  Ta0  1  -0.12909907  -0.03559582  -0.11864251  1
  Ta  Ta1  1  0.06193727  0.09256099  0.42722168  1
  Zr  Zr2  1  -0.00321743  -0.06199851  0.52029540  1
  Ta  Ta3  1  -0.04623038  0.01000096  0.73765840  1
  Ta  Ta4  1  0.08797333  0.37338289  0.01455619  1
  Ta  Ta5  1  0.01023432  0.33817589  0.15631468  1
  Ta  Ta6  1  -0.00263310  0.09642777  0.60741899  1
  Ta  Ta7  1  -0.15724044  0.13206512  0.63460197  1
  Ta  Ta8  1  0.00999220  0.52831465  0.00910584  1
  Zr  Zr9  1  0.00937115  0.49647945  0.23735531  1
  Ta  Ta10  1  -0.11822965  0.55625150  0.38686986  1
  Ta  Ta11  1  0.08107659  0.51854503  0.86827601  1
  Ta  Ta12  1  0.15049219  0.63630857  0.09597788  1
  Ta  Ta13  1  -0.06599222  0.64874473  0.23330309  1
  Ta  Ta14  1  -0.07215855  0.74406666  0.51190689  1
  Ta  Ta15  1  -0.06882775  0.83294885  0.66863068  1
  Ta  Ta16  1  0.32095545  0.04716863  0.01767755  1
  Ta  Ta17  1  0.34784222  -0.05592362  0.18882896  1
  Ta  Ta18  1  0.20967914  -0.02621278  0.50056885  1
  Ta  Ta19  1  0.13674588  0.04977449  0.66245075  1
  Zr  Zr20  1  0.30657780  0.31961852  0.00945154  1
  Ta  Ta21  1  0.20060915  0.32152822  0.16015976  1
  Ta  Ta22  1  0.15416184  0.16844579  0.51981022  1
  Ta  Ta23  1  0.41570318  0.31100975  0.83277293  1
  Zr  Zr24  1  0.21399458  0.49328370  -0.02755832  1
  Ta  Ta25  1  0.16206671  0.48368225  0.13948943  1
  Ta  Ta26  1  0.40299085  0.59342939  0.54892506  1
  Ta  Ta27  1  0.28378406  0.46691044  0.78266887  1
  Zr  Zr28  1  0.33159338  0.65294246  0.00555868  1
  Ta  Ta29  1  0.26801526  0.78015953  0.13633613  1
  Ta  Ta30  1  0.25860347  0.66785936  0.53545677  1
  Ta  Ta31  1  0.20571038  0.66650136  0.86282984  1
  Zr  Zr32  1  0.54221994  -0.01336210  -0.00965651  1
  Zr  Zr33  1  0.51383150  0.01017335  0.25170546  1
  Ta  Ta34  1  0.51070476  -0.07934379  0.40623585  1
  Ta  Ta35  1  0.59808375  0.07003197  0.83632194  1
  Ta  Ta36  1  0.45541495  0.18799305  -0.03338784  1
  Ta  Ta37  1  0.42760533  0.11608219  0.12526236  1
  Ta  Ta38  1  0.51164196  0.33992844  0.61504727  1
  Zr  Zr39  1  0.57213136  0.22690159  0.73533387  1
  Ta  Ta40  1  0.40251264  0.47726019  -0.07673350  1
  Ta  Ta41  1  0.60912285  0.49515791  0.40290653  1
  Ta  Ta42  1  0.53188933  0.52617332  0.56431215  1
  Ta  Ta43  1  0.44922843  0.46069719  0.71120154  1
  Ta  Ta44  1  0.41048459  0.87381125  0.03474932  1
  Ta  Ta45  1  0.47984441  0.82930047  0.18304452  1
  Ta  Ta46  1  0.60908510  0.68917247  0.54919915  1
  Ta  Ta47  1  0.49118375  0.68821729  0.66134300  1
  Zr  Zr48  1  0.70481924  0.05777061  -0.00794105  1
  Ta  Ta49  1  0.64474618  -0.06224607  0.14746375  1
  Ta  Ta50  1  0.82481443  -0.04640403  0.58942675  1
  Zr  Zr51  1  0.75310846  0.02730250  0.76052929  1
  Ta  Ta52  1  0.61597117  0.21975353  -0.06547484  1
  Ta  Ta53  1  0.86144818  0.40344531  0.28603415  1
  Ta  Ta54  1  0.69647509  0.24199559  0.61031781  1
  Zr  Zr55  1  0.76120161  0.22711417  0.80599231  1
  Ta  Ta56  1  0.88576445  0.46792442  0.10490669  1
  Zr  Zr57  1  0.76152343  0.54605369  0.23168357  1
  Ta  Ta58  1  0.73917404  0.59308994  0.49746748  1
  Ta  Ta59  1  0.65039426  0.39112793  0.69499391  1
  Ta  Ta60  1  0.70248335  0.87214720  0.00612901  1
  Ta  Ta61  1  0.80523577  0.70455591  0.34604268  1
  Zr  Zr62  1  0.74837946  0.79963319  0.48369194  1
  Ta  Ta63  1  0.76299442  0.81168508  0.68557402  1
