# generated using pymatgen
data_Zr20Ta7(C2N)9
_symmetry_space_group_name_H-M   'P 1'
_cell_length_a   11.14508778
_cell_length_b   11.22738298
_cell_length_c   10.82246647
_cell_angle_alpha   91.35812176
_cell_angle_beta   87.46691596
_cell_angle_gamma   89.48525677
_symmetry_Int_Tables_number   1
_chemical_formula_structural   Zr20Ta7(C2N)9
_chemical_formula_sum   'Zr20 Ta7 C18 N9'
_cell_volume   1352.44552884
_cell_formula_units_Z   1
loop_
 _symmetry_equiv_pos_site_id
 _symmetry_equiv_pos_as_xyz
  1  'x, y, z'
loop_
 _atom_site_type_symbol
 _atom_site_label
 _atom_site_symmetry_multiplicity
 _atom_site_fract_x
 _atom_site_fract_y
 _atom_site_fract_z
 _atom_site_occupancy
  Ta  Ta0  1  0.03233851  0.10471249  -0.09089366  1
  N  N1  1  0.10897080  0.21641508  0.04275695  1
  Zr  Zr2  1  -0.12353171  0.03644242  0.44954153  1
  C  C3  1  0.32257108  0.04668594  0.56944636  1
  Zr  Zr4  1  0.12013727  0.10969864  0.59679693  1
  C  C5  1  0.16896187  0.18273414  0.78423903  1
  Zr  Zr6  1  0.03473921  0.38623652  0.10044986  1
  C  C7  1  0.16126289  0.49854151  0.01136982  1
  Ta  Ta8  1  -0.18357257  0.26788213  0.28380132  1
  N  N9  1  0.22184478  0.67485753  0.54145021  1
  Zr  Zr10  1  0.02317800  0.32798072  0.78297166  1
  C  C11  1  0.16844472  0.71698338  0.83736522  1
  Zr  Zr12  1  0.01172709  0.59851955  -0.10681967  1
  N  N13  1  0.30643430  0.77322333  0.10801657  1
  Zr  Zr14  1  -0.10561650  0.69881814  0.39754255  1
  C  C15  1  0.01940654  0.94474177  0.56333457  1
  Zr  Zr16  1  0.07632269  0.74379759  0.64930898  1
  C  C17  1  0.23925109  0.81353903  0.80503826  1
  Zr  Zr18  1  0.38161654  -0.09917705  0.01474388  1
  C  C19  1  0.45596162  0.10409530  0.21338368  1
  Zr  Zr20  1  0.33507408  0.11769053  0.37254294  1
  C  C21  1  0.48906516  0.23545379  0.44338387  1
  Zr  Zr22  1  0.29079584  0.01523896  0.77214144  1
  C  C23  1  0.44070925  0.11656759  0.85985288  1
  Ta  Ta24  1  0.25993398  0.23839775  -0.05926658  1
  N  N25  1  0.54263106  0.68404081  0.22517011  1
  Zr  Zr26  1  0.38012604  0.39788173  0.48844847  1
  C  C27  1  0.53610203  0.47488337  0.37280547  1
  Ta  Ta28  1  0.44970051  0.17733695  0.62840415  1
  N  N29  1  0.49285605  0.65381627  0.96142315  1
  Zr  Zr30  1  0.30190542  0.63976919  -0.01954173  1
  C  C31  1  0.58246444  0.89491951  0.04303524  1
  Ta  Ta32  1  0.43376727  0.63721067  0.35197308  1
  N  N33  1  0.49643699  0.70636366  0.50466552  1
  Zr  Zr34  1  0.35881126  0.69136013  0.64919755  1
  C  C35  1  0.36439038  0.82953253  0.81453190  1
  Zr  Zr36  1  0.57376188  0.08948140  0.04708464  1
  C  C37  1  0.70046419  0.17637402  0.17861656  1
  Zr  Zr38  1  0.61463978  0.08831754  0.37546126  1
  C  C39  1  0.70968635  0.05046805  0.56690960  1
  Zr  Zr40  1  0.58286645  -0.00516888  0.72895406  1
  C  C41  1  0.89027232  0.16849052  0.81519964  1
  Zr  Zr42  1  0.79680205  0.28034273  -0.00689833  1
  C  C43  1  0.82830388  0.41203794  0.18069208  1
  Zr  Zr44  1  0.53109349  0.30887936  0.24284548  1
  N  N45  1  0.75050455  0.60507165  0.47407184  1
  Zr  Zr46  1  0.76925568  0.21498456  0.66778285  1
  C  C47  1  0.92277725  0.42156159  0.93442506  1
  Ta  Ta48  1  0.60580367  0.72124394  0.05925159  1
  N  N49  1  0.80380809  0.71419161  0.24947029  1
  Zr  Zr50  1  0.70632940  0.55813706  0.26292269  1
  C  C51  1  0.95557688  0.85697576  0.50872137  1
  Ta  Ta52  1  0.60177572  0.56164025  0.53405293  1
  N  N53  1  0.96106038  0.61977932  0.71782489  1
