# generated using pymatgen
data_Zr10Ta17C22N5
_symmetry_space_group_name_H-M   'P 1'
_cell_length_a   11.13696118
_cell_length_b   11.16764668
_cell_length_c   11.04602270
_cell_angle_alpha   90.85455756
_cell_angle_beta   89.93592997
_cell_angle_gamma   90.89040874
_symmetry_Int_Tables_number   1
_chemical_formula_structural   Zr10Ta17C22N5
_chemical_formula_sum   'Zr10 Ta17 C22 N5'
_cell_volume   1373.51491572
_cell_formula_units_Z   1
loop_
 _symmetry_equiv_pos_site_id
 _symmetry_equiv_pos_as_xyz
  1  'x, y, z'
loop_
 _atom_site_type_symbol
 _atom_site_label
 _atom_site_symmetry_multiplicity
 _atom_site_fract_x
 _atom_site_fract_y
 _atom_site_fract_z
 _atom_site_occupancy
  Ta  Ta0  1  0.09681898  0.12549900  -0.04163374  1
  N  N1  1  0.15080719  0.05350415  0.10182757  1
  Zr  Zr2  1  -0.05157411  -0.07676721  0.39227022  1
  C  C3  1  0.26503484  0.14159807  0.60198831  1
  Zr  Zr4  1  0.06377933  0.06206717  0.62655666  1
  C  C5  1  0.25498686  0.12853127  0.88655564  1
  Ta  Ta6  1  -0.12088174  0.32516345  0.00176641  1
  C  C7  1  0.11019692  0.67946176  0.14293578  1
  Ta  Ta8  1  -0.13657502  0.38600336  0.44398364  1
  C  C9  1  0.11451968  0.57440996  0.40775347  1
  Zr  Zr10  1  -0.05118452  0.28511800  0.72379974  1
  C  C11  1  0.25490959  0.56640648  0.92197678  1
  Ta  Ta12  1  0.16626941  0.49975641  0.07481765  1
  C  C13  1  0.32022134  0.86470807  0.19111074  1
  Zr  Zr14  1  -0.02908995  0.59530788  0.25952701  1
  C  C15  1  0.14021195  0.84719328  0.40152387  1
  Ta  Ta16  1  0.08087176  0.71692023  0.51606622  1
  C  C17  1  0.25913890  0.87335681  0.87305347  1
  Zr  Zr18  1  0.34786400  0.00185066  0.03568986  1
  C  C19  1  0.50880697  0.11109122  0.09427828  1
  Ta  Ta20  1  0.18265133  -0.03241911  0.26197084  1
  C  C21  1  0.58058439  0.15690187  0.54428098  1
  Zr  Zr22  1  0.33690117  0.01562092  0.73893995  1
  C  C23  1  0.51847134  0.17286142  0.81140624  1
  Ta  Ta24  1  0.37830434  0.25689623  -0.07437634  1
  N  N25  1  0.57213129  0.45634778  0.02799235  1
  Ta  Ta26  1  0.46956714  0.23483179  0.42058965  1
  C  C27  1  0.47717161  0.39724250  0.52225872  1
  Ta  Ta28  1  0.43048392  0.24593763  0.65662241  1
  C  C29  1  0.50375378  0.58418069  0.78358997  1
  Ta  Ta30  1  0.24244946  0.74442277  0.01825989  1
  C  C31  1  0.39636610  0.79218945  0.12235284  1
  Ta  Ta32  1  0.22608079  0.69725041  0.28935809  1
  N  N33  1  0.56829479  0.71004546  0.51779465  1
  Zr  Zr34  1  0.31502267  0.64661702  0.74936188  1
  C  C35  1  0.34708680  0.82514445  0.80568746  1
  Ta  Ta36  1  0.62351625  0.11830731  -0.03396721  1
  C  C37  1  0.75029732  0.30275496  0.30740565  1
  Ta  Ta38  1  0.73654136  0.15728794  0.42344409  1
  C  C39  1  0.84558747  0.22558329  0.56352502  1
  Zr  Zr40  1  0.71765217  0.08904742  0.70317246  1
  C  C41  1  0.78095853  0.23654599  0.84703515  1
  Ta  Ta42  1  0.61245133  0.34904168  -0.10897471  1
  C  C43  1  0.97463823  0.45304273  0.09426076  1
  Ta  Ta44  1  0.61317551  0.42142539  0.36338580  1
  C  C45  1  0.72886464  0.49867320  0.51487848  1
  Zr  Zr46  1  0.68178533  0.34194347  0.62841035  1
  C  C47  1  0.78906491  0.36927745  0.81898761  1
  Ta  Ta48  1  0.45657489  0.56088252  -0.04002319  1
  N  N49  1  0.88438089  0.74585143  0.34950347  1
  Zr  Zr50  1  0.71102313  0.67076875  0.41281344  1
  C  C51  1  0.89661663  0.74039578  0.47495868  1
  Ta  Ta52  1  0.55239375  0.56741489  0.59994227  1
  N  N53  1  0.85402431  0.98650449  0.72930475  1
