# generated using pymatgen
data_Zr18Ta9C11N16
_symmetry_space_group_name_H-M   'P 1'
_cell_length_a   11.32490104
_cell_length_b   11.46654347
_cell_length_c   11.64946678
_cell_angle_alpha   90.93250501
_cell_angle_beta   89.84077961
_cell_angle_gamma   89.96850829
_symmetry_Int_Tables_number   1
_chemical_formula_structural   Zr18Ta9C11N16
_chemical_formula_sum   'Zr18 Ta9 C11 N16'
_cell_volume   1512.56382460
_cell_formula_units_Z   1
loop_
 _symmetry_equiv_pos_site_id
 _symmetry_equiv_pos_as_xyz
  1  'x, y, z'
loop_
 _atom_site_type_symbol
 _atom_site_label
 _atom_site_symmetry_multiplicity
 _atom_site_fract_x
 _atom_site_fract_y
 _atom_site_fract_z
 _atom_site_occupancy
  Ta  Ta0  1  -0.20526959  0.05675229  0.00048336  1
  N  N1  1  0.25058700  0.18710492  0.30458621  1
  Zr  Zr2  1  -0.01393079  -0.06732018  0.36051747  1
  C  C3  1  0.21834362  0.08412156  0.52975607  1
  Zr  Zr4  1  0.03954154  0.03613331  0.61118866  1
  C  C5  1  0.25263944  0.19245670  0.78849990  1
  Zr  Zr6  1  -0.12926297  0.31609425  -0.02158652  1
  N  N7  1  0.15926256  0.55940618  0.30044371  1
  Ta  Ta8  1  0.12300107  0.19578429  0.41782558  1
  N  N9  1  0.18908845  0.65504072  0.51359171  1
  Zr  Zr10  1  0.07692214  0.30683859  0.75391208  1
  C  C11  1  0.13039704  0.50219683  0.74337478  1
  Ta  Ta12  1  -0.00615041  0.53632464  -0.15526798  1
  N  N13  1  0.10174414  0.80359894  0.32933926  1
  Zr  Zr14  1  0.04422933  0.65693991  0.39802084  1
  C  C15  1  0.00847390  0.84815129  0.56237004  1
  Zr  Zr16  1  0.13473040  0.69256390  0.66975090  1
  N  N17  1  0.28607212  0.75814161  0.74219682  1
  Zr  Zr18  1  0.34119292  0.03333400  -0.06758425  1
  C  C19  1  0.44604127  0.15092016  0.13292306  1
  Zr  Zr20  1  0.35799872  0.06340337  0.38645918  1
  N  N21  1  0.52552652  0.12802792  0.40003604  1
  Zr  Zr22  1  0.31694678  0.02613347  0.67911350  1
  C  C23  1  0.49708357  0.13580412  0.90517810  1
  Ta  Ta24  1  0.43208676  0.24730426  -0.20997514  1
  N  N25  1  0.50342258  0.35239720  0.26071513  1
  Zr  Zr26  1  0.34665131  0.30405155  0.20259304  1
  N  N27  1  0.41271581  0.55531071  0.39381834  1
  Ta  Ta28  1  0.27005501  0.25103535  0.60309703  1
  N  N29  1  0.50402376  0.64978004  0.83078810  1
  Zr  Zr30  1  0.35316415  0.72682241  -0.09968496  1
  N  N31  1  0.56471198  0.90754187  0.24775354  1
  Ta  Ta32  1  0.28708923  0.65254015  0.36601500  1
  N  N33  1  0.61912821  0.81803776  0.48454561  1
  Zr  Zr34  1  0.45404261  0.79852115  0.67691111  1
  C  C35  1  0.47658268  0.89027626  0.89349784  1
  Zr  Zr36  1  0.54905338  -0.01537923  0.09393773  1
  C  C37  1  0.70140077  0.12731922  0.12990316  1
  Zr  Zr38  1  0.64159414  -0.02071623  0.38576567  1
  N  N39  1  0.98647624  0.10020040  0.45166742  1
  Zr  Zr40  1  0.61334686  0.02668604  0.79363623  1
  C  C41  1  0.75998757  0.16575752  0.87387406  1
  Zr  Zr42  1  0.60286692  0.26190905  0.01102673  1
  N  N43  1  0.73351255  0.38708590  0.03009974  1
  Ta  Ta44  1  0.58016319  0.20742861  0.26184209  1
  N  N45  1  0.85058419  0.70585731  0.49311028  1
  Zr  Zr46  1  0.74153793  0.29189965  0.74342949  1
  C  C47  1  0.88706410  0.40436860  0.80100403  1
  Ta  Ta48  1  0.61324037  0.76522640  -0.12395360  1
  N  N49  1  0.80900008  0.89799888  0.32946013  1
  Zr  Zr50  1  0.73396268  0.74604635  0.35349333  1
  C  C51  1  0.89953267  0.79519137  0.56107400  1
  Ta  Ta52  1  0.72107236  0.78196178  0.61325216  1
  N  N53  1  0.70672115  0.85958688  0.76217418  1
