# generated using pymatgen
data_Zr8Ta19C23N4
_symmetry_space_group_name_H-M   'P 1'
_cell_length_a   10.99275805
_cell_length_b   11.08459873
_cell_length_c   10.88245167
_cell_angle_alpha   88.66678424
_cell_angle_beta   88.93756890
_cell_angle_gamma   91.31759379
_symmetry_Int_Tables_number   1
_chemical_formula_structural   Zr8Ta19C23N4
_chemical_formula_sum   'Zr8 Ta19 C23 N4'
_cell_volume   1325.07920628
_cell_formula_units_Z   1
loop_
 _symmetry_equiv_pos_site_id
 _symmetry_equiv_pos_as_xyz
  1  'x, y, z'
loop_
 _atom_site_type_symbol
 _atom_site_label
 _atom_site_symmetry_multiplicity
 _atom_site_fract_x
 _atom_site_fract_y
 _atom_site_fract_z
 _atom_site_occupancy
  Ta  Ta0  1  0.03424372  0.13220918  -0.04436583  1
  C  C1  1  0.13494047  0.11245997  0.13633608  1
  Zr  Zr2  1  0.05912601  0.02906798  0.31320900  1
  C  C3  1  0.26138100  0.03534736  0.40802903  1
  Zr  Zr4  1  -0.02754136  -0.04863703  0.65108462  1
  C  C5  1  0.20542398  0.11472411  0.86056414  1
  Ta  Ta6  1  -0.05629906  0.39501041  -0.07280556  1
  C  C7  1  0.01798446  0.47728059  0.10127445  1
  Ta  Ta8  1  -0.16019559  0.30087414  0.32457367  1
  C  C9  1  0.17037282  0.63654985  0.38067808  1
  Ta  Ta10  1  -0.11865382  0.36597860  0.61371279  1
  C  C11  1  0.28595936  0.56516434  0.95060567  1
  Ta  Ta12  1  0.11010800  0.61293926  -0.02387865  1
  C  C13  1  0.22518211  0.85818778  0.17404544  1
  Zr  Zr14  1  0.01586437  0.64116020  0.24159298  1
  C  C15  1  0.07823644  0.88585117  0.46974767  1
  Ta  Ta16  1  0.09825901  0.69913243  0.53811291  1
  C  C17  1  0.19573214  0.78064711  0.89429710  1
  Ta  Ta18  1  0.20668695  -0.05194322  -0.00496989  1
  C  C19  1  0.43404573  0.17060286  0.10749509  1
  Ta  Ta20  1  0.31466812  0.04404890  0.21293086  1
  C  C21  1  0.56687864  0.14227820  0.55792119  1
  Zr  Zr22  1  0.36395742  0.00611123  0.78128233  1
  C  C23  1  0.58186549  0.19514612  0.84634749  1
  Ta  Ta24  1  0.27191406  0.21803705  0.01845701  1
  N  N25  1  0.47419285  0.64730771  0.08180550  1
  Ta  Ta26  1  0.42003491  0.14716765  0.43831566  1
  C  C27  1  0.50415003  0.41076718  0.63592083  1
  Ta  Ta28  1  0.45855312  0.24325837  0.68967470  1
  C  C29  1  0.58457259  0.61835506  0.81774658  1
  Ta  Ta30  1  0.35092548  0.74397993  0.05060006  1
  C  C31  1  0.41947976  0.91948756  -0.02825253  1
  Ta  Ta32  1  0.24610258  0.82198270  0.35667453  1
  N  N33  1  0.64519155  0.72384702  0.52659962  1
  Zr  Zr34  1  0.26978703  0.64242736  0.75572817  1
  C  C35  1  0.26555799  0.83782410  0.80369067  1
  Ta  Ta36  1  0.52784695  0.06568166  -0.00873542  1
  C  C37  1  0.85766140  0.30978037  0.11057761  1
  Ta  Ta38  1  0.69500731  0.10122318  0.41199228  1
  C  C39  1  0.80934084  0.22194798  0.51042878  1
  Zr  Zr40  1  0.71735802  0.14421156  0.69622837  1
  C  C41  1  0.91983939  0.22045366  0.83309009  1
  Ta  Ta42  1  0.75901479  0.21023387  -0.03145640  1
  C  C43  1  0.94339645  0.38969974  0.16586560  1
  Ta  Ta44  1  0.63595271  0.34555425  0.50552581  1
  C  C45  1  0.74407240  0.48828415  0.60710714  1
  Zr  Zr46  1  0.65670301  0.40518442  0.79668885  1
  C  C47  1  0.82454454  0.29511453  0.79094052  1
  Ta  Ta48  1  0.47107302  0.53294966  -0.04453137  1
  N  N49  1  0.85550125  0.62430522  0.31461363  1
  Zr  Zr50  1  0.81947574  0.66866201  0.48803980  1
  C  C51  1  0.96051885  0.82747906  0.48420885  1
  Ta  Ta52  1  0.58207705  0.59870291  0.62631819  1
  N  N53  1  0.81192790  0.97589851  0.67831625  1
