# generated using pymatgen
data_Zr18Ta9C4N23
_symmetry_space_group_name_H-M   'P 1'
_cell_length_a   11.72886597
_cell_length_b   11.69939921
_cell_length_c   11.68927554
_cell_angle_alpha   89.80364042
_cell_angle_beta   89.25300132
_cell_angle_gamma   89.67290373
_symmetry_Int_Tables_number   1
_chemical_formula_structural   Zr18Ta9C4N23
_chemical_formula_sum   'Zr18 Ta9 C4 N23'
_cell_volume   1603.83892480
_cell_formula_units_Z   1
loop_
 _symmetry_equiv_pos_site_id
 _symmetry_equiv_pos_as_xyz
  1  'x, y, z'
loop_
 _atom_site_type_symbol
 _atom_site_label
 _atom_site_symmetry_multiplicity
 _atom_site_fract_x
 _atom_site_fract_y
 _atom_site_fract_z
 _atom_site_occupancy
  Ta  Ta0  1  -0.05464601  0.12423950  -0.10225487  1
  N  N1  1  0.18648180  0.19800663  0.29372912  1
  Zr  Zr2  1  -0.01728651  -0.08740408  0.44046815  1
  N  N3  1  0.19320441  0.26003765  0.40223009  1
  Zr  Zr4  1  -0.14750025  0.02673588  0.67026489  1
  N  N5  1  0.07506662  0.22323408  0.90714325  1
  Zr  Zr6  1  0.02344380  0.28155794  0.07520615  1
  N  N7  1  0.19270988  0.37628283  0.10846211  1
  Ta  Ta8  1  0.13946066  0.37030988  0.28008457  1
  N  N9  1  0.17571723  0.51000600  0.37972632  1
  Zr  Zr10  1  0.01416535  0.37383565  0.82616251  1
  N  N11  1  0.19642664  0.56823253  0.92600126  1
  Ta  Ta12  1  0.10437533  0.53132823  0.05271392  1
  N  N13  1  0.18182398  0.65251669  0.16068024  1
  Zr  Zr14  1  0.05756578  0.64409081  0.31438468  1
  N  N15  1  0.08367785  0.76864745  0.43552697  1
  Zr  Zr16  1  -0.00898039  0.68174872  0.56646822  1
  N  N17  1  0.24051166  0.77941912  0.83369680  1
  Zr  Zr18  1  0.39543564  -0.03769865  0.01274506  1
  N  N19  1  0.42744972  0.24537832  0.17826344  1
  Zr  Zr20  1  0.34382950  0.12247548  0.27297375  1
  N  N21  1  0.42487495  0.19345719  0.41242068  1
  Zr  Zr22  1  0.33717169  -0.11757521  0.74186972  1
  N  N23  1  0.63137928  0.15385033  0.83347950  1
  Ta  Ta24  1  0.36223222  0.37084171  0.09667573  1
  N  N25  1  0.44302459  0.48309891  0.19925696  1
  Zr  Zr26  1  0.25614230  0.39389606  0.49840568  1
  N  N27  1  0.44295675  0.42133634  0.48211081  1
  Ta  Ta28  1  0.47474388  0.26728357  0.54752807  1
  N  N29  1  0.42834019  0.63974880  0.86463993  1
  Zr  Zr30  1  0.28536109  0.71366991  0.01642035  1
  N  N31  1  0.44763421  0.79337749  0.05572275  1
  Ta  Ta32  1  0.29222192  0.54733764  0.24835947  1
  N  N33  1  0.65735375  0.81372772  0.53460953  1
  Zr  Zr34  1  0.28020233  0.61675125  0.77849721  1
  C  C35  1  0.48873536  0.92910270  0.84429630  1
  Zr  Zr36  1  0.65584705  -0.00874085  -0.07873724  1
  N  N37  1  0.86490893  0.18543270  0.02598776  1
  Zr  Zr38  1  0.69507552  -0.02306843  0.45404772  1
  N  N39  1  0.70451593  0.09854018  0.57869995  1
  Zr  Zr40  1  0.55875136  0.03962971  0.69794669  1
  C  C41  1  0.87148723  0.19937537  0.75119518  1
  Zr  Zr42  1  0.71838468  0.25723455  -0.05364300  1
  N  N43  1  0.98347505  0.43668456  -0.01544035  1
  Ta  Ta44  1  0.46600599  0.35430669  0.32280875  1
  N  N45  1  0.90589474  0.62240908  0.42955981  1
  Zr  Zr46  1  0.69992176  0.25218780  0.67935775  1
  C  C47  1  0.83903509  0.30856793  0.80084183  1
  Ta  Ta48  1  0.52406389  0.75758480  -0.08948062  1
  N  N49  1  0.83164658  0.88118479  0.36229695  1
  Zr  Zr50  1  0.76801165  0.72524138  0.40496239  1
  C  C51  1  0.90230297  0.84690051  0.60698592  1
  Ta  Ta52  1  0.73956126  0.79886280  0.67243125  1
  N  N53  1  0.71580306  0.93478137  0.76120994  1
