# generated using pymatgen
data_Zr8Ta19C13N14
_symmetry_space_group_name_H-M   'P 1'
_cell_length_a   11.29668496
_cell_length_b   11.59101345
_cell_length_c   11.51718322
_cell_angle_alpha   91.31055395
_cell_angle_beta   89.81761155
_cell_angle_gamma   89.94014726
_symmetry_Int_Tables_number   1
_chemical_formula_structural   Zr8Ta19C13N14
_chemical_formula_sum   'Zr8 Ta19 C13 N14'
_cell_volume   1507.65721637
_cell_formula_units_Z   1
loop_
 _symmetry_equiv_pos_site_id
 _symmetry_equiv_pos_as_xyz
  1  'x, y, z'
loop_
 _atom_site_type_symbol
 _atom_site_label
 _atom_site_symmetry_multiplicity
 _atom_site_fract_x
 _atom_site_fract_y
 _atom_site_fract_z
 _atom_site_occupancy
  Ta  Ta0  1  -0.10423460  0.05800615  -0.11802565  1
  N  N1  1  0.17818934  0.20873271  0.12804774  1
  Zr  Zr2  1  0.06985716  -0.02130502  0.36822705  1
  C  C3  1  0.10287409  0.17111506  0.59592944  1
  Zr  Zr4  1  0.03093554  -0.00953806  0.64193027  1
  C  C5  1  0.07139764  0.15825111  0.87245539  1
  Ta  Ta6  1  -0.01718374  0.32269061  -0.05934528  1
  C  C7  1  0.20530303  0.51103936  0.15707629  1
  Ta  Ta8  1  0.12237163  0.34839459  0.20234075  1
  N  N9  1  0.23438244  0.64463560  0.49785718  1
  Ta  Ta10  1  -0.02386795  0.24201795  0.70961584  1
  C  C11  1  0.12875770  0.42147423  0.93977690  1
  Ta  Ta12  1  0.04530824  0.55120149  0.06465162  1
  N  N13  1  0.04927999  0.85713804  0.24568768  1
  Zr  Zr14  1  -0.01861616  0.72315368  0.31700104  1
  C  C15  1  0.22336431  0.95719413  0.52737651  1
  Ta  Ta16  1  0.16253125  0.78370616  0.55842735  1
  N  N17  1  0.21682386  0.77072535  0.71481338  1
  Ta  Ta18  1  0.46260599  0.13329147  -0.18567317  1
  C  C19  1  0.55242200  0.19961051  -0.00266553  1
  Ta  Ta20  1  0.25205548  0.12292408  0.53179763  1
  N  N21  1  0.56982198  0.11741289  0.68380185  1
  Zr  Zr22  1  0.33164168  -0.08670854  0.71868978  1
  C  C23  1  0.58671900  0.25441329  0.89190107  1
  Ta  Ta24  1  0.22311408  0.25521302  -0.02565001  1
  N  N25  1  0.44861219  0.54068642  0.26520476  1
  Ta  Ta26  1  0.36557615  0.41223940  0.18020920  1
  C  C27  1  0.45467076  0.51375465  0.53522019  1
  Ta  Ta28  1  0.22045419  0.16827730  0.75728059  1
  N  N29  1  0.35032792  0.59051395  0.84739731  1
  Ta  Ta30  1  0.29050325  0.50523690  -0.03098173  1
  N  N31  1  0.60776776  0.73005509  0.11342390  1
  Ta  Ta32  1  0.31605991  0.53342867  0.40729232  1
  N  N33  1  0.49559415  0.76358773  0.64309526  1
  Zr  Zr34  1  0.35255438  0.63136855  0.67850155  1
  C  C35  1  0.49127802  0.94482534  0.85153684  1
  Ta  Ta36  1  0.64442233  0.03001360  -0.04916875  1
  C  C37  1  0.81660992  0.09717528  0.03781186  1
  Ta  Ta38  1  0.82483970  -0.10799126  0.46563504  1
  N  N39  1  0.89506407  0.02625881  0.41871549  1
  Zr  Zr40  1  0.61672260  -0.05779467  0.69496691  1
  C  C41  1  0.83972908  0.22047230  0.83368154  1
  Ta  Ta42  1  0.74568283  0.26190337  -0.00367747  1
  N  N43  1  0.91864898  0.61879635  0.16976273  1
  Ta  Ta44  1  0.54853289  0.46658053  0.37873310  1
  N  N45  1  0.65378877  0.60145183  0.38140492  1
  Zr  Zr46  1  0.67470181  0.26614736  0.72353713  1
  C  C47  1  0.83326485  0.34694076  0.81740232  1
  Ta  Ta48  1  0.58527168  0.80412314  -0.03162727  1
  N  N49  1  0.80322487  0.78073664  0.33691797  1
  Zr  Zr50  1  0.72563752  0.65555377  0.22855884  1
  C  C51  1  0.98550984  0.83043869  0.51917039  1
  Ta  Ta52  1  0.58263410  0.65206864  0.54808402  1
  N  N53  1  0.75646153  0.97836097  0.80586600  1
