# generated using pymatgen
data_Zr4Ta23(C2N7)3
_symmetry_space_group_name_H-M   'P 1'
_cell_length_a   11.54869744
_cell_length_b   11.48470023
_cell_length_c   11.67613632
_cell_angle_alpha   90.21784630
_cell_angle_beta   89.99506370
_cell_angle_gamma   91.35921500
_symmetry_Int_Tables_number   1
_chemical_formula_structural   Zr4Ta23(C2N7)3
_chemical_formula_sum   'Zr4 Ta23 C6 N21'
_cell_volume   1548.19788367
_cell_formula_units_Z   1
loop_
 _symmetry_equiv_pos_site_id
 _symmetry_equiv_pos_as_xyz
  1  'x, y, z'
loop_
 _atom_site_type_symbol
 _atom_site_label
 _atom_site_symmetry_multiplicity
 _atom_site_fract_x
 _atom_site_fract_y
 _atom_site_fract_z
 _atom_site_occupancy
  Ta  Ta0  1  -0.00131352  0.12917264  -0.01185171  1
  N  N1  1  0.24450759  0.28401662  0.22138091  1
  Ta  Ta2  1  -0.05615784  -0.00536867  0.32640252  1
  C  C3  1  0.09265857  0.12284648  0.37671800  1
  Ta  Ta4  1  0.06663806  0.06804625  0.54702946  1
  N  N5  1  0.07382282  0.23215992  0.86104068  1
  Ta  Ta6  1  -0.01055632  0.37406591  -0.07977509  1
  N  N7  1  0.11478673  0.49061176  0.18267265  1
  Ta  Ta8  1  0.07237791  0.19015091  0.21069961  1
  N  N9  1  0.22276029  0.35801090  0.48167814  1
  Ta  Ta10  1  -0.06994042  0.19037635  0.76394371  1
  N  N11  1  0.28192343  0.48211267  0.97948403  1
  Ta  Ta12  1  -0.04064418  0.43645944  0.18393816  1
  N  N13  1  0.07006552  0.85552028  0.30392842  1
  Ta  Ta14  1  -0.05463844  0.73376957  0.27441485  1
  C  C15  1  0.17696403  0.90681520  0.55847410  1
  Ta  Ta16  1  0.03337106  0.82205932  0.49039261  1
  N  N17  1  0.28004202  0.74549637  0.85552389  1
  Ta  Ta18  1  0.38027160  -0.12179929  -0.09606940  1
  N  N19  1  0.35885982  0.23376519  0.20552996  1
  Ta  Ta20  1  0.19475901  -0.03419235  0.36970403  1
  N  N21  1  0.44549029  0.29582502  0.42755256  1
  Ta  Ta22  1  0.34321429  -0.05853108  0.59913055  1
  N  N23  1  0.63161969  0.09668446  0.73635450  1
  Ta  Ta24  1  0.19687383  0.38571085  0.08835162  1
  N  N25  1  0.54898127  0.53730530  0.26110827  1
  Ta  Ta26  1  0.26945171  0.22113038  0.37856079  1
  N  N27  1  0.44330586  0.54146727  0.49790380  1
  Ta  Ta28  1  0.36805262  0.38424639  0.54196960  1
  N  N29  1  0.48605551  0.59421678  0.87356451  1
  Ta  Ta30  1  0.34893777  0.63263318  -0.02820681  1
  N  N31  1  0.45091275  0.78431435  0.03330222  1
  Ta  Ta32  1  0.52122316  0.69383528  0.47039190  1
  N  N33  1  0.41086874  0.79246990  0.54958886  1
  Zr  Zr34  1  0.40167738  0.69481575  0.71757247  1
  C  C35  1  0.51798924  0.85031926  0.79419725  1
  Ta  Ta36  1  0.66322142  -0.00866947  -0.14651213  1
  N  N37  1  0.94117365  0.28082595  0.07883261  1
  Ta  Ta38  1  0.77312248  -0.17130636  0.45493418  1
  N  N39  1  0.82950149  0.19592818  0.62329895  1
  Zr  Zr40  1  0.79243617  0.01539683  0.63562706  1
  C  C41  1  0.83522081  0.07075765  0.89944805  1
  Ta  Ta42  1  0.78670590  0.23184458  -0.02146446  1
  N  N43  1  0.88139642  0.57859537  0.22635322  1
  Ta  Ta44  1  0.56103154  0.44616254  0.39289703  1
  N  N45  1  0.70684886  0.51618240  0.42873536  1
  Zr  Zr46  1  0.69123437  0.26455954  0.70727980  1
  C  C47  1  0.82348902  0.33836244  0.83875657  1
  Ta  Ta48  1  0.57775966  0.72957174  -0.07918033  1
  N  N49  1  0.80311253  0.81985099  0.28604754  1
  Zr  Zr50  1  0.70907169  0.62180472  0.28600962  1
  C  C51  1  0.90961069  0.95531725  0.50357269  1
  Ta  Ta52  1  0.64100058  0.79564009  0.67157708  1
  N  N53  1  0.75885088  0.87863701  0.76718551  1
