# generated using pymatgen
data_Zr4Ta23N27
_symmetry_space_group_name_H-M   'P 1'
_cell_length_a   11.72877621
_cell_length_b   11.29505501
_cell_length_c   11.72874278
_cell_angle_alpha   90.02777302
_cell_angle_beta   89.30745190
_cell_angle_gamma   90.02133213
_symmetry_Int_Tables_number   1
_chemical_formula_structural   Zr4Ta23N27
_chemical_formula_sum   'Zr4 Ta23 N27'
_cell_volume   1553.67688952
_cell_formula_units_Z   1
loop_
 _symmetry_equiv_pos_site_id
 _symmetry_equiv_pos_as_xyz
  1  'x, y, z'
loop_
 _atom_site_type_symbol
 _atom_site_label
 _atom_site_symmetry_multiplicity
 _atom_site_fract_x
 _atom_site_fract_y
 _atom_site_fract_z
 _atom_site_occupancy
  Ta  Ta0  1  -0.02691885  0.04173225  -0.02729605  1
  N  N1  1  0.15888184  0.17001750  0.15903758  1
  Ta  Ta2  1  0.02317149  0.04274946  0.20526807  1
  N  N3  1  0.20197566  0.16132636  0.37283921  1
  Ta  Ta4  1  -0.09429606  0.04540339  0.72964931  1
  N  N5  1  0.10982898  0.16719558  0.93243038  1
  Ta  Ta6  1  -0.02865138  0.29314547  -0.02842464  1
  N  N7  1  0.16793723  0.39373888  0.16789716  1
  Ta  Ta8  1  0.01871505  0.29978223  0.20137140  1
  N  N9  1  0.24493455  0.54575129  0.64725455  1
  Ta  Ta10  1  -0.09462569  0.28806326  0.72911696  1
  N  N11  1  0.10575847  0.55424203  0.83043073  1
  Ta  Ta12  1  0.14204057  0.65610838  0.14205055  1
  N  N13  1  0.16858397  0.94524255  0.16873810  1
  Ta  Ta14  1  -0.07457968  0.66655066  0.21332218  1
  N  N15  1  0.24539634  0.78806641  0.64809214  1
  Ta  Ta16  1  0.12457066  0.66655524  0.68539569  1
  N  N17  1  0.10567933  0.78084728  0.83076682  1
  Ta  Ta18  1  0.20558536  0.04325694  0.02359539  1
  N  N19  1  0.37263811  0.16072332  0.20152370  1
  Ta  Ta20  1  0.27207304  0.04085869  0.27240387  1
  N  N21  1  0.57386740  0.16596683  0.57387312  1
  Ta  Ta22  1  0.22816809  -0.11776023  0.78684815  1
  N  N23  1  0.64505167  0.16620084  0.80967644  1
  Ta  Ta24  1  0.20119815  0.30013795  0.01861203  1
  N  N25  1  0.64725302  0.54589716  0.24509219  1
  Ta  Ta26  1  0.26601837  0.27897534  0.26568048  1
  N  N27  1  0.53556982  0.53733990  0.53725681  1
  Ta  Ta28  1  0.22755536  0.45163557  0.78647929  1
  N  N29  1  0.33700532  0.54623617  0.86448240  1
  Ta  Ta30  1  0.21334770  0.66649944  -0.07457067  1
  N  N31  1  0.64808219  0.78820967  0.24526199  1
  Ta  Ta32  1  0.45789286  0.66717872  0.45787308  1
  N  N33  1  0.53739804  0.79668427  0.53583117  1
  Zr  Zr34  1  0.38565667  0.66641248  0.71745814  1
  N  N35  1  0.33724471  0.78703294  0.86414140  1
  Ta  Ta36  1  0.72981119  0.04552461  -0.09430133  1
  N  N37  1  0.93229708  0.16706812  0.10969371  1
  Ta  Ta38  1  0.78686919  -0.11769200  0.22794046  1
  N  N39  1  0.80964743  0.16625904  0.64504932  1
  Zr  Zr40  1  0.65028199  0.03583149  0.65021759  1
  N  N41  1  0.87275277  0.16652066  0.87271560  1
  Ta  Ta42  1  0.72900054  0.28816668  -0.09458389  1
  N  N43  1  0.83040429  0.55412912  0.10582808  1
  Ta  Ta44  1  0.78648934  0.45174517  0.22776125  1
  N  N45  1  0.86451743  0.54644515  0.33708587  1
  Zr  Zr46  1  0.65010693  0.29639091  0.65019654  1
  N  N47  1  0.77676155  0.38781149  0.77675504  1
  Ta  Ta48  1  0.68537613  0.66656632  0.12459403  1
  N  N49  1  0.83077303  0.78073921  0.10558749  1
  Zr  Zr50  1  0.71751383  0.66696098  0.38565930  1
  N  N51  1  0.86417812  0.78724191  0.33715125  1
  Ta  Ta52  1  0.61595179  0.66682775  0.61594767  1
  N  N53  1  0.77725903  0.94545922  0.77724299  1
