# generated using pymatgen
data_Zr5Ta22C22N5
_symmetry_space_group_name_H-M   'P 1'
_cell_length_a   11.20207284
_cell_length_b   10.91584125
_cell_length_c   11.18962546
_cell_angle_alpha   90.20647056
_cell_angle_beta   90.12818095
_cell_angle_gamma   90.62723976
_symmetry_Int_Tables_number   1
_chemical_formula_structural   Zr5Ta22C22N5
_chemical_formula_sum   'Zr5 Ta22 C22 N5'
_cell_volume   1368.17352879
_cell_formula_units_Z   1
loop_
 _symmetry_equiv_pos_site_id
 _symmetry_equiv_pos_as_xyz
  1  'x, y, z'
loop_
 _atom_site_type_symbol
 _atom_site_label
 _atom_site_symmetry_multiplicity
 _atom_site_fract_x
 _atom_site_fract_y
 _atom_site_fract_z
 _atom_site_occupancy
  Ta  Ta0  1  0.13576821  0.02364571  -0.05592570  1
  N  N1  1  0.20252424  0.04974318  0.10118474  1
  Zr  Zr2  1  -0.00385335  -0.10702906  0.36424571  1
  C  C3  1  -0.02057175  0.05538378  0.47634033  1
  Ta  Ta4  1  -0.03186572  0.08878622  0.66095889  1
  C  C5  1  0.13124887  0.11032339  0.76901437  1
  Ta  Ta6  1  -0.02949306  0.28344209  -0.10460000  1
  C  C7  1  0.10887245  0.65538878  0.16205821  1
  Ta  Ta8  1  -0.04805859  0.35838016  0.40246758  1
  C  C9  1  0.11450095  0.50037397  0.39760943  1
  Ta  Ta10  1  -0.07168748  0.38268410  0.66624046  1
  C  C11  1  0.20388031  0.55999615  0.93641656  1
  Ta  Ta12  1  0.11150384  0.48961129  0.07178817  1
  C  C13  1  0.13864325  0.77506059  0.19655360  1
  Ta  Ta14  1  -0.03277398  0.61708631  0.30760720  1
  C  C15  1  0.08310328  0.75461480  0.48497648  1
  Ta  Ta16  1  0.05631176  0.57356144  0.56060545  1
  C  C17  1  0.25421872  0.89231133  0.88465111  1
  Ta  Ta18  1  0.41742360  -0.03126217  -0.01519575  1
  C  C19  1  0.52591621  0.12707636  0.04714129  1
  Ta  Ta20  1  0.25196688  -0.07109265  0.20959271  1
  C  C21  1  0.56908637  0.25844976  0.61840287  1
  Ta  Ta22  1  0.30722888  0.03740557  0.75346579  1
  C  C23  1  0.39364547  0.17051829  0.84046574  1
  Ta  Ta24  1  0.42683719  0.34302715  -0.07757826  1
  N  N25  1  0.57283313  0.44164677  -0.00039808  1
  Ta  Ta26  1  0.55071565  0.26226026  0.43057238  1
  C  C27  1  0.52314904  0.44800009  0.49403004  1
  Ta  Ta28  1  0.40715040  0.35391690  0.63706234  1
  C  C29  1  0.44625615  0.49044169  0.77088025  1
  Ta  Ta30  1  0.26233000  0.73788741  0.01987393  1
  C  C31  1  0.39667797  0.84790510  0.12936769  1
  Ta  Ta32  1  0.20401552  0.67544630  0.36140056  1
  N  N33  1  0.62813159  0.71786306  0.57661834  1
  Zr  Zr34  1  0.28004615  0.61565832  0.77217143  1
  C  C35  1  0.34729933  0.81137116  0.84608147  1
  Ta  Ta36  1  0.58606749  0.15444239  -0.11596726  1
  C  C37  1  0.72815752  0.28860228  0.34187430  1
  Ta  Ta38  1  0.81022577  0.12850754  0.41524697  1
  C  C39  1  0.86308849  0.24695182  0.55630422  1
  Zr  Zr40  1  0.72297762  0.13868087  0.66325198  1
  C  C41  1  0.76576317  0.25782817  0.84297838  1
  Ta  Ta42  1  0.74807575  0.39676866  -0.00864740  1
  C  C43  1  0.93655995  0.44274353  0.02281653  1
  Ta  Ta44  1  0.72414962  0.40095067  0.50672143  1
  C  C45  1  0.85910002  0.52053479  0.44179384  1
  Zr  Zr46  1  0.63774404  0.41561572  0.74702322  1
  C  C47  1  0.82061500  0.37869220  0.81653295  1
  Ta  Ta48  1  0.51185054  0.59622666  -0.08376926  1
  N  N49  1  0.86558342  0.76435635  0.31082396  1
  Zr  Zr50  1  0.78505666  0.70494299  0.48067010  1
  C  C51  1  0.97232140  0.75285215  0.54195427  1
  Ta  Ta52  1  0.50779785  0.60555900  0.60487943  1
  N  N53  1  0.84188421  1.00586063  0.71936501  1
