# generated using pymatgen
data_Ta27C5N22
_symmetry_space_group_name_H-M   'P 1'
_cell_length_a   11.65292828
_cell_length_b   11.55712529
_cell_length_c   11.64963192
_cell_angle_alpha   88.60873117
_cell_angle_beta   89.68696368
_cell_angle_gamma   89.94890146
_symmetry_Int_Tables_number   1
_chemical_formula_structural   Ta27C5N22
_chemical_formula_sum   'Ta27 C5 N22'
_cell_volume   1568.42025869
_cell_formula_units_Z   1
loop_
 _symmetry_equiv_pos_site_id
 _symmetry_equiv_pos_as_xyz
  1  'x, y, z'
loop_
 _atom_site_type_symbol
 _atom_site_label
 _atom_site_symmetry_multiplicity
 _atom_site_fract_x
 _atom_site_fract_y
 _atom_site_fract_z
 _atom_site_occupancy
  Ta  Ta0  1  -0.08493470  0.12627656  -0.13761982  1
  N  N1  1  0.19288770  0.16723283  0.33596222  1
  Ta  Ta2  1  -0.00409012  0.07873036  0.38041221  1
  C  C3  1  0.10379953  0.12460591  0.56665594  1
  Ta  Ta4  1  -0.03419532  -0.01433439  0.60349085  1
  N  N5  1  0.06230170  0.18833416  0.80801064  1
  Ta  Ta6  1  0.01748273  0.35921356  -0.12888095  1
  N  N7  1  0.24507875  0.42515654  0.20572483  1
  Ta  Ta8  1  0.09577115  0.27823801  0.43247314  1
  N  N9  1  0.23611529  0.35439255  0.50861441  1
  Ta  Ta10  1  -0.02247014  0.22958742  0.64984507  1
  N  N11  1  0.05070747  0.47653751  0.98139262  1
  Ta  Ta12  1  -0.09264662  0.55726661  -0.02192524  1
  N  N13  1  0.29867674  0.67834586  0.11304379  1
  Ta  Ta14  1  -0.02913362  0.79341751  0.43505642  1
  N  N15  1  0.08291321  0.92032368  0.44021850  1
  Ta  Ta16  1  -0.13136980  0.68624207  0.67325510  1
  N  N17  1  0.30241021  0.81590007  0.85993084  1
  Ta  Ta18  1  0.37540294  -0.03006478  -0.11217981  1
  N  N19  1  0.43892987  0.25827612  0.23268298  1
  Ta  Ta20  1  0.21511893  0.03567781  0.45813480  1
  N  N21  1  0.37051930  0.13982109  0.51639664  1
  Ta  Ta22  1  0.45056916  0.01743956  0.62686221  1
  N  N23  1  0.47940111  0.07099329  0.78544279  1
  Ta  Ta24  1  0.35947945  0.35412620  0.11520899  1
  N  N25  1  0.47627089  0.48886285  0.13002975  1
  Ta  Ta26  1  0.33112261  0.28709652  0.37754152  1
  N  N27  1  0.42730863  0.46328337  0.36960505  1
  Ta  Ta28  1  0.25344921  0.22062557  0.61474084  1
  N  N29  1  0.51313516  0.65282467  0.83315683  1
  Ta  Ta30  1  0.38611668  0.71313267  -0.02242244  1
  N  N31  1  0.53303835  0.77429914  0.05714937  1
  Ta  Ta32  1  0.34308826  0.56437960  0.22515310  1
  N  N33  1  0.53711970  0.82629119  0.60312681  1
  Ta  Ta34  1  0.43598014  0.78832053  0.73758795  1
  C  C35  1  0.49617108  0.86905741  0.98996908  1
  Ta  Ta36  1  0.61274123  -0.03279395  -0.13795298  1
  N  N37  1  0.91816277  0.24237594  -0.01507024  1
  Ta  Ta38  1  0.78257751  -0.03133587  0.42449737  1
  N  N39  1  0.87211873  0.10097956  0.51005438  1
  Ta  Ta40  1  0.68464238  -0.09690924  0.64553925  1
  C  C41  1  0.81917668  0.24863670  0.76261040  1
  Ta  Ta42  1  0.78417073  0.33904672  -0.06075008  1
  N  N43  1  0.80155144  0.45594882  0.05332534  1
  Ta  Ta44  1  0.53407317  0.40056338  0.26817510  1
  N  N45  1  0.90525745  0.63648051  0.51396215  1
  Ta  Ta46  1  0.80480072  0.41733039  0.68798097  1
  C  C47  1  0.86818546  0.49196477  0.82336797  1
  Ta  Ta48  1  0.63967644  0.72059141  -0.07613509  1
  N  N49  1  0.83428593  0.82734935  0.33703106  1
  Ta  Ta50  1  0.74873696  0.71637913  0.46792361  1
  C  C51  1  0.84362922  0.85187465  0.57067263  1
  Ta  Ta52  1  0.62848391  0.65731017  0.68418233  1
  N  N53  1  0.70620367  0.81429788  0.79673877  1
