# generated using pymatgen
data_Zr9C2N7
_symmetry_space_group_name_H-M   'P 1'
_cell_length_a   11.23019468
_cell_length_b   11.13758248
_cell_length_c   11.24755743
_cell_angle_alpha   90.60746296
_cell_angle_beta   91.06453499
_cell_angle_gamma   89.62564648
_symmetry_Int_Tables_number   1
_chemical_formula_structural   Zr9C2N7
_chemical_formula_sum   'Zr27 C6 N21'
_cell_volume   1406.46309517
_cell_formula_units_Z   3
loop_
 _symmetry_equiv_pos_site_id
 _symmetry_equiv_pos_as_xyz
  1  'x, y, z'
loop_
 _atom_site_type_symbol
 _atom_site_label
 _atom_site_symmetry_multiplicity
 _atom_site_fract_x
 _atom_site_fract_y
 _atom_site_fract_z
 _atom_site_occupancy
  Zr  Zr0  1  -0.06323072  0.11292619  -0.08166414  1
  N  N1  1  0.18017551  0.16133117  0.28608467  1
  Zr  Zr2  1  0.07567354  0.02348390  0.23268102  1
  C  C3  1  0.17621091  0.13271872  0.57338635  1
  Zr  Zr4  1  0.00038103  0.02137083  0.57901575  1
  N  N5  1  0.08274256  0.22672414  0.92861361  1
  Zr  Zr6  1  0.00549933  0.32730866  0.09935464  1
  N  N7  1  0.19011893  0.37702582  0.12295165  1
  Zr  Zr8  1  0.06750426  0.23905784  0.43546306  1
  N  N9  1  0.19588441  0.36817015  0.43227712  1
  Zr  Zr10  1  0.03190724  0.31816668  0.75561801  1
  N  N11  1  0.09406118  0.46053569  0.87855133  1
  Zr  Zr12  1  -0.06686228  0.54449035  -0.10577129  1
  N  N13  1  0.17170707  0.89821772  0.33034045  1
  Zr  Zr14  1  0.01008778  0.80504934  0.38886923  1
  C  C15  1  0.11095392  0.82077447  0.57686673  1
  Zr  Zr16  1  -0.05844241  0.74861012  0.65765982  1
  N  N17  1  0.31878774  0.83766233  0.80083919  1
  Zr  Zr18  1  0.38298026  -0.01997413  -0.08462136  1
  N  N19  1  0.45248832  0.28919873  0.18363734  1
  Zr  Zr20  1  0.28862835  0.05257934  0.42026709  1
  N  N21  1  0.41024205  0.18478181  0.42097247  1
  Zr  Zr22  1  0.23096602  -0.04267147  0.67785022  1
  N  N23  1  0.52263617  -0.01015472  0.80264085  1
  Zr  Zr24  1  0.22477323  0.35163310  -0.04899151  1
  N  N25  1  0.53826328  0.35342057  0.19811396  1
  Zr  Zr26  1  0.28399746  0.32191636  0.27095777  1
  N  N27  1  0.44103945  0.41575662  0.45266688  1
  Zr  Zr28  1  0.32517910  0.30730945  0.54579227  1
  N  N29  1  0.50481282  0.65168124  0.79265863  1
  Zr  Zr30  1  0.36779912  0.69366941  -0.09980981  1
  N  N31  1  0.42214464  0.83977085  0.04015868  1
  Zr  Zr32  1  0.26715748  0.78545006  0.46210113  1
  N  N33  1  0.36755914  0.90797372  0.54952435  1
  Zr  Zr34  1  0.48676656  0.82450987  0.69393778  1
  C  C35  1  0.52956732  0.80179476  1.02131505  1
  Zr  Zr36  1  0.65702012  -0.06084021  -0.07966160  1
  N  N37  1  0.86658376  0.19945169  0.06054848  1
  Zr  Zr38  1  0.80331039  -0.00186097  0.37133926  1
  N  N39  1  0.97052194  0.06801370  0.38165852  1
  Zr  Zr40  1  0.72571308  -0.04403772  0.66819055  1
  C  C41  1  0.84565527  0.25464299  0.80484155  1
  Zr  Zr42  1  0.76153533  0.33246656  -0.02421347  1
  N  N43  1  0.87951577  0.45499468  0.04454439  1
  Zr  Zr44  1  0.55095841  0.30160105  0.38708609  1
  N  N45  1  0.82383734  0.62733512  0.56898165  1
  Zr  Zr46  1  0.73024963  0.29767833  0.65509700  1
  C  C47  1  0.83785382  0.39305065  0.79036301  1
  Zr  Zr48  1  0.64956000  0.67472314  -0.06977275  1
  N  N49  1  0.84610825  0.83146336  0.30237978  1
  Zr  Zr50  1  0.74474764  0.73924107  0.44164282  1
  C  C51  1  0.85214493  0.88695301  0.53678435  1
  Zr  Zr52  1  0.68452444  0.61341366  0.68261473  1
  N  N53  1  0.69999900  0.79944021  0.78726671  1
