# generated using pymatgen
data_ZrN
_symmetry_space_group_name_H-M   'P 1'
_cell_length_a   8.84333327
_cell_length_b   8.84329614
_cell_length_c   8.84326987
_cell_angle_alpha   89.99513797
_cell_angle_beta   89.99423308
_cell_angle_gamma   89.99442016
_symmetry_Int_Tables_number   1
_chemical_formula_structural   ZrN
_chemical_formula_sum   'Zr27 N27'
_cell_volume   691.58096885
_cell_formula_units_Z   27
loop_
 _symmetry_equiv_pos_site_id
 _symmetry_equiv_pos_as_xyz
  1  'x, y, z'
loop_
 _atom_site_type_symbol
 _atom_site_label
 _atom_site_symmetry_multiplicity
 _atom_site_fract_x
 _atom_site_fract_y
 _atom_site_fract_z
 _atom_site_occupancy
  Zr  Zr0  1  0.00386829  0.00330129  0.00503416  1
  N  N1  1  0.15860229  0.16481042  0.16405355  1
  Zr  Zr2  1  0.00529916  0.00439703  0.33689638  1
  N  N3  1  0.16219893  0.15871398  0.49940161  1
  Zr  Zr4  1  0.00676319  0.00653007  0.66917137  1
  N  N5  1  0.16153136  0.16312504  0.82604708  1
  Zr  Zr6  1  0.00264396  0.33491302  0.00696555  1
  N  N7  1  0.16178957  0.49474683  0.16501595  1
  Zr  Zr8  1  0.00339096  0.33661957  0.33118316  1
  N  N9  1  0.16457756  0.49952354  0.49756821  1
  Zr  Zr10  1  0.00420226  0.33432615  0.67224537  1
  N  N11  1  0.16526624  0.49776908  0.82676779  1
  Zr  Zr12  1  0.00290817  0.67200685  0.00438462  1
  N  N13  1  0.16144963  0.82978538  0.16269520  1
  Zr  Zr14  1  0.00401062  0.67030994  0.33598884  1
  N  N15  1  0.16371249  0.83184436  0.49524275  1
  Zr  Zr16  1  0.00390539  0.66738226  0.66980429  1
  N  N17  1  0.16432691  0.83021935  0.83089889  1
  Zr  Zr18  1  0.33939013  0.00002106  0.00206610  1
  N  N19  1  0.49706032  0.16555296  0.16322012  1
  Zr  Zr20  1  0.33749165  0.00228218  0.33965263  1
  N  N21  1  0.49717231  0.16070296  0.49553258  1
  Zr  Zr22  1  0.33437201  0.00504061  0.66886516  1
  N  N23  1  0.49613321  0.16393392  0.83066612  1
  Zr  Zr24  1  0.33944063  0.33783285  0.00394025  1
  N  N25  1  0.49380146  0.49241671  0.16429506  1
  Zr  Zr26  1  0.33925505  0.33914009  0.33465580  1
  N  N27  1  0.49548241  0.49671007  0.49570141  1
  Zr  Zr28  1  0.33674538  0.33810621  0.67198363  1
  N  N29  1  0.49414354  0.49596365  0.82905386  1
  Zr  Zr30  1  0.33774779  0.67147653  0.00164626  1
  N  N31  1  0.49604885  0.83161393  0.16089430  1
  Zr  Zr32  1  0.33691315  0.66946952  0.33855014  1
  N  N33  1  0.49692486  0.83135960  0.49278088  1
  Zr  Zr34  1  0.33569838  0.66694497  0.67106830  1
  N  N35  1  0.49589598  0.82954559  0.83579739  1
  Zr  Zr36  1  0.66922508  0.00092966  0.00252831  1
  N  N37  1  0.83252563  0.16624525  0.16229971  1
  Zr  Zr38  1  0.66847081  0.00318070  0.33916141  1
  N  N39  1  0.82883801  0.16149951  0.49811802  1
  Zr  Zr40  1  0.67136012  0.00527760  0.66840103  1
  N  N41  1  0.82986056  0.16469003  0.82853002  1
  Zr  Zr42  1  0.66986866  0.33537293  0.00439757  1
  N  N43  1  0.83223232  0.49389334  0.16454535  1
  Zr  Zr44  1  0.66955426  0.33718334  0.33575429  1
  N  N45  1  0.82650405  0.49979912  0.49775585  1
  Zr  Zr46  1  0.67156257  0.33745180  0.67104967  1
  N  N47  1  0.82824795  0.49792042  0.82732192  1
  Zr  Zr48  1  0.67114068  0.67426107  0.00073304  1
  N  N49  1  0.83050347  0.82853344  0.16142357  1
  Zr  Zr50  1  0.67220084  0.67110178  0.34019695  1
  N  N51  1  0.82680285  0.82821108  0.49545092  1
  Zr  Zr52  1  0.67397765  0.66829597  0.66953007  1
  N  N53  1  0.82696041  0.82771539  0.83306752  1
