# generated using pymatgen
data_Zr16Ta11C27
_symmetry_space_group_name_H-M   'P 1'
_cell_length_a   10.64175670
_cell_length_b   10.84544115
_cell_length_c   10.72912300
_cell_angle_alpha   90.86505652
_cell_angle_beta   89.77386052
_cell_angle_gamma   90.32927841
_symmetry_Int_Tables_number   1
_chemical_formula_structural   Zr16Ta11C27
_chemical_formula_sum   'Zr16 Ta11 C27'
_cell_volume   1238.12605294
_cell_formula_units_Z   1
loop_
 _symmetry_equiv_pos_site_id
 _symmetry_equiv_pos_as_xyz
  1  'x, y, z'
loop_
 _atom_site_type_symbol
 _atom_site_label
 _atom_site_symmetry_multiplicity
 _atom_site_fract_x
 _atom_site_fract_y
 _atom_site_fract_z
 _atom_site_occupancy
  Ta  Ta0  1  -0.01802145  0.03706536  -0.03921000  1
  C  C1  1  0.22638091  0.23961303  0.24773079  1
  Zr  Zr2  1  0.03141585  -0.08927974  0.35422171  1
  C  C3  1  0.21546173  0.20976099  0.50650070  1
  Zr  Zr4  1  0.00415459  0.00544396  0.66879347  1
  C  C5  1  0.04760240  0.16520685  0.83300270  1
  Zr  Zr6  1  -0.01243717  0.30836360  0.00444613  1
  C  C7  1  0.10047105  0.47806168  0.00030548  1
  Ta  Ta8  1  0.08727020  0.20940143  0.37422769  1
  C  C9  1  0.16816523  0.57200575  0.49339845  1
  Zr  Zr10  1  -0.06907081  0.27515333  0.70931624  1
  C  C11  1  0.13628913  0.58908624  0.98391867  1
  Ta  Ta12  1  -0.00048736  0.72804037  0.03961573  1
  C  C13  1  0.08903487  0.78327646  0.19951104  1
  Zr  Zr14  1  0.01004637  0.61517751  0.29794458  1
  C  C15  1  0.15818597  0.88593465  0.51803509  1
  Ta  Ta16  1  0.06478697  0.72218498  0.57307104  1
  C  C17  1  0.26110988  0.78248235  0.79863009  1
  Zr  Zr18  1  0.44575674  0.01050049  -0.04821513  1
  C  C19  1  0.46650878  0.07626002  0.16329658  1
  Zr  Zr20  1  0.34088290  0.07184877  0.35001160  1
  C  C21  1  0.47914465  0.22194373  0.44649543  1
  Zr  Zr22  1  0.31470556  -0.07419859  0.64402503  1
  C  C23  1  0.61498827  0.09928313  0.86439252  1
  Ta  Ta24  1  0.37795026  0.24725287  0.12993934  1
  C  C25  1  0.54582916  0.63246448  0.18603837  1
  Zr  Zr26  1  0.31684444  0.39482290  0.40554863  1
  C  C27  1  0.41921367  0.54447675  0.50209544  1
  Ta  Ta28  1  0.37363278  0.20566066  0.60341224  1
  C  C29  1  0.50190025  0.62383352  0.77521383  1
  Ta  Ta30  1  0.42411695  0.72095673  -0.07971668  1
  C  C31  1  0.56713088  0.84115760  -0.01920730  1
  Ta  Ta32  1  0.29329965  0.71908568  0.43308598  1
  C  C33  1  0.44046045  0.80246511  0.55106001  1
  Zr  Zr34  1  0.29399826  0.59629735  0.69031581  1
  C  C35  1  0.30712805  0.88300639  0.86146734  1
  Zr  Zr36  1  0.72805964  -0.03701336  0.03905836  1
  C  C37  1  0.84863175  0.14219425  0.06141676  1
  Zr  Zr38  1  0.69338309  -0.03535273  0.37449679  1
  C  C39  1  0.81763851  0.11480673  0.64019583  1
  Zr  Zr40  1  0.71422060  -0.04147933  0.74167617  1
  C  C41  1  0.74083979  0.35876932  0.80941623  1
  Zr  Zr42  1  0.67697543  0.24396379  -0.00787225  1
  C  C43  1  0.85189919  0.60231032  0.12143565  1
  Ta  Ta44  1  0.57653908  0.20559991  0.27917249  1
  C  C45  1  0.91311637  0.74264710  0.45100729  1
  Zr  Zr46  1  0.64157635  0.22213487  0.69010717  1
  C  C47  1  0.83361690  0.37809266  0.88876686  1
  Ta  Ta48  1  0.66381765  0.67849504  0.04767634  1
  C  C49  1  0.83216136  0.72774510  0.15923971  1
  Zr  Zr50  1  0.70176687  0.66470838  0.31756305  1
  C  C51  1  0.82605977  0.82656448  0.41392978  1
  Ta  Ta52  1  0.54331357  0.65730815  0.58726384  1
  C  C53  1  0.87253401  0.91440894  0.86273127  1
