# generated using pymatgen
data_ZrTa2N3
_symmetry_space_group_name_H-M   'P 1'
_cell_length_a   11.46483189
_cell_length_b   11.50516450
_cell_length_c   11.33927206
_cell_angle_alpha   90.25082278
_cell_angle_beta   89.95027303
_cell_angle_gamma   88.38767457
_symmetry_Int_Tables_number   1
_chemical_formula_structural   ZrTa2N3
_chemical_formula_sum   'Zr9 Ta18 N27'
_cell_volume   1495.09691995
_cell_formula_units_Z   9
loop_
 _symmetry_equiv_pos_site_id
 _symmetry_equiv_pos_as_xyz
  1  'x, y, z'
loop_
 _atom_site_type_symbol
 _atom_site_label
 _atom_site_symmetry_multiplicity
 _atom_site_fract_x
 _atom_site_fract_y
 _atom_site_fract_z
 _atom_site_occupancy
  Ta  Ta0  1  -0.01411354  0.00429571  0.11192474  1
  N  N1  1  0.03070885  0.11286620  0.22467621  1
  Zr  Zr2  1  0.09815782  -0.01580313  0.35268181  1
  N  N3  1  0.17482758  0.00487719  0.53412099  1
  Zr  Zr4  1  0.00549149  0.06152225  0.61133627  1
  N  N5  1  0.01177694  0.17237539  0.76172057  1
  Ta  Ta6  1  -0.02895414  0.21764566  -0.07990233  1
  N  N7  1  0.15482301  0.61992656  0.24491085  1
  Ta  Ta8  1  -0.10914609  0.26313302  0.39113453  1
  N  N9  1  0.23061077  0.62168337  0.56877839  1
  Zr  Zr10  1  -0.10310134  0.31994539  0.69491279  1
  N  N11  1  0.28050189  0.48092437  0.89813272  1
  Ta  Ta12  1  0.20009445  0.75464927  0.16303537  1
  N  N13  1  0.05271946  0.85170570  0.18529106  1
  Zr  Zr14  1  0.00073131  0.72723298  0.33300393  1
  N  N15  1  0.16454922  0.80310511  0.40141869  1
  Ta  Ta16  1  0.12507178  0.75654183  0.58620780  1
  N  N17  1  0.18762597  0.79855511  0.73970189  1
  Ta  Ta18  1  0.28377188  -0.19003719  -0.10903245  1
  N  N19  1  0.32002576  0.35542956  0.13272068  1
  Ta  Ta20  1  0.30771163  -0.10524270  0.45341351  1
  N  N21  1  0.58387295  0.11083437  0.63752696  1
  Zr  Zr22  1  0.26225082  -0.02004441  0.69889016  1
  N  N23  1  0.56287615  0.12517382  0.88041969  1
  Ta  Ta24  1  0.38524705  0.36649704  -0.02412685  1
  N  N25  1  0.52448967  0.44396711  0.24113686  1
  Ta  Ta26  1  0.36523316  0.49559102  0.20607472  1
  N  N27  1  0.63369048  0.60678462  0.37960351  1
  Ta  Ta28  1  0.40513429  0.51415914  0.78656805  1
  N  N29  1  0.52190250  0.48122795  0.91516851  1
  Ta  Ta30  1  0.37323216  0.62854664  0.00739016  1
  N  N31  1  0.50936509  0.66700651  0.10844782  1
  Ta  Ta32  1  0.27532422  0.64681246  0.40214902  1
  N  N33  1  0.41500403  0.75617843  0.46874355  1
  Zr  Zr34  1  0.37935699  0.72937958  0.67324149  1
  N  N35  1  0.40964629  0.88073072  0.80035247  1
  Ta  Ta36  1  0.73031883  0.08845578  -0.08698824  1
  N  N37  1  0.88464018  0.08966067  -0.00022600  1
  Ta  Ta38  1  0.83644520  -0.07406795  0.30866498  1
  N  N39  1  0.91807095  0.20714622  0.54153761  1
  Zr  Zr40  1  0.57002216  -0.02166537  0.74963861  1
  N  N41  1  0.77583940  0.22902272  0.81054441  1
  Ta  Ta42  1  0.75898559  0.36859201  -0.07284267  1
  N  N43  1  0.73508325  0.55296902  0.17477532  1
  Ta  Ta44  1  0.68778532  0.45550312  0.30502150  1
  N  N45  1  0.80371188  0.39660672  0.42271876  1
  Zr  Zr46  1  0.59057542  0.24346557  0.74195679  1
  N  N47  1  0.92515399  0.38215470  0.89126142  1
  Ta  Ta48  1  0.59416954  0.51019033  0.07237222  1
  N  N49  1  0.82561740  0.76113063  0.27070644  1
  Zr  Zr50  1  0.65307381  0.71821198  0.23042730  1
  N  N51  1  0.94551217  0.93228531  0.44168556  1
  Ta  Ta52  1  0.54347474  0.65040102  0.50550004  1
  N  N53  1  0.74100959  0.96176084  0.81147183  1
