# generated using pymatgen
data_Zr13Ta14C8N19
_symmetry_space_group_name_H-M   'P 1'
_cell_length_a   11.49553279
_cell_length_b   11.53637116
_cell_length_c   11.59918493
_cell_angle_alpha   90.41793110
_cell_angle_beta   90.20072883
_cell_angle_gamma   89.84523833
_symmetry_Int_Tables_number   1
_chemical_formula_structural   Zr13Ta14C8N19
_chemical_formula_sum   'Zr13 Ta14 C8 N19'
_cell_volume   1538.19014269
_cell_formula_units_Z   1
loop_
 _symmetry_equiv_pos_site_id
 _symmetry_equiv_pos_as_xyz
  1  'x, y, z'
loop_
 _atom_site_type_symbol
 _atom_site_label
 _atom_site_symmetry_multiplicity
 _atom_site_fract_x
 _atom_site_fract_y
 _atom_site_fract_z
 _atom_site_occupancy
  Ta  Ta0  1  0.04400588  0.09325868  -0.11350999  1
  N  N1  1  0.25150017  0.22359785  0.29614898  1
  Zr  Zr2  1  0.02200158  -0.08406770  0.33068965  1
  C  C3  1  0.09559178  0.19303684  0.49743173  1
  Zr  Zr4  1  0.02274472  0.04818462  0.59971721  1
  C  C5  1  0.14017436  0.14008126  0.73523333  1
  Zr  Zr6  1  -0.01845351  0.35575493  -0.02830246  1
  N  N7  1  0.15493255  0.49394980  0.32611371  1
  Ta  Ta8  1  0.14469775  0.32471194  0.38043249  1
  N  N9  1  0.27314269  0.37620169  0.50542763  1
  Zr  Zr10  1  0.00517512  0.29320594  0.69146795  1
  N  N11  1  0.10239728  0.37418217  0.84864503  1
  Ta  Ta12  1  -0.11661153  0.72819198  0.13837505  1
  N  N13  1  0.01985619  0.79132832  0.20170614  1
  Zr  Zr14  1  0.05101731  0.63787976  0.33819423  1
  C  C15  1  0.10294893  0.80411797  0.46352439  1
  Ta  Ta16  1  -0.05427429  0.77654359  0.54169419  1
  N  N17  1  0.30783594  0.81347802  0.75636871  1
  Zr  Zr18  1  0.38794753  0.10495374  0.00519955  1
  N  N19  1  0.53150408  0.09317842  0.08007432  1
  Ta  Ta20  1  0.22823553  0.08696926  0.41166572  1
  N  N21  1  0.36003663  0.13257238  0.50982379  1
  Zr  Zr22  1  0.28183661  -0.00332879  0.74431549  1
  C  C23  1  0.44501101  0.09891333  0.81523587  1
  Ta  Ta24  1  0.22320527  0.25338508  -0.14374907  1
  N  N25  1  0.43325959  0.44087865  0.29680501  1
  Zr  Zr26  1  0.40823554  0.27896365  0.37657882  1
  N  N27  1  0.44586332  0.56630414  0.52281786  1
  Ta  Ta28  1  0.25639257  0.23192322  0.60552570  1
  N  N29  1  0.52488965  0.68363313  0.79319718  1
  Ta  Ta30  1  0.41637550  0.80639473  -0.11434220  1
  N  N31  1  0.54873282  0.80713551  0.01780991  1
  Ta  Ta32  1  0.29406550  0.52366161  0.42862970  1
  N  N33  1  0.53306990  0.82697061  0.60118113  1
  Zr  Zr34  1  0.40091990  0.70936365  0.63670641  1
  C  C35  1  0.45257840  0.98187628  0.86129826  1
  Zr  Zr36  1  0.62149447  -0.02433454  -0.01669666  1
  N  N37  1  0.97452007  0.18048394  0.04465165  1
  Ta  Ta38  1  0.76015308  -0.07792860  0.27903267  1
  N  N39  1  0.88263315  0.16415402  0.61043298  1
  Zr  Zr40  1  0.56674425  -0.01985295  0.69876705  1
  C  C41  1  0.90335435  0.21066657  0.83615828  1
  Ta  Ta42  1  0.82157911  0.15791557  -0.01055983  1
  N  N43  1  0.88738806  0.60288585  0.24285331  1
  Ta  Ta44  1  0.53678776  0.53255263  0.38135780  1
  N  N45  1  0.91826329  0.62752825  0.47958429  1
  Zr  Zr46  1  0.75374391  0.18129760  0.71561612  1
  C  C47  1  0.81735645  0.30376563  0.85949147  1
  Ta  Ta48  1  0.65376440  0.72530226  -0.07802722  1
  N  N49  1  0.72705552  0.78401260  0.20908314  1
  Zr  Zr50  1  0.77179596  0.67165300  0.37353089  1
  C  C51  1  0.84487714  0.86241939  0.41814169  1
  Ta  Ta52  1  0.65211473  0.74481005  0.68623158  1
  N  N53  1  0.68553203  0.86528244  0.81221938  1
