# generated using pymatgen
data_Ta27C20N7
_symmetry_space_group_name_H-M   'P 1'
_cell_length_a   11.18532627
_cell_length_b   11.40145530
_cell_length_c   10.98339921
_cell_angle_alpha   90.04059543
_cell_angle_beta   88.90790159
_cell_angle_gamma   91.18540109
_symmetry_Int_Tables_number   1
_chemical_formula_structural   Ta27C20N7
_chemical_formula_sum   'Ta27 C20 N7'
_cell_volume   1400.14766920
_cell_formula_units_Z   1
loop_
 _symmetry_equiv_pos_site_id
 _symmetry_equiv_pos_as_xyz
  1  'x, y, z'
loop_
 _atom_site_type_symbol
 _atom_site_label
 _atom_site_symmetry_multiplicity
 _atom_site_fract_x
 _atom_site_fract_y
 _atom_site_fract_z
 _atom_site_occupancy
  Ta  Ta0  1  0.02438254  0.10223168  -0.09450121  1
  N  N1  1  0.11380634  0.17153336  0.03608666  1
  Ta  Ta2  1  -0.01746957  -0.18523082  0.42302258  1
  C  C3  1  0.28763640  0.07230075  0.55494215  1
  Ta  Ta4  1  0.12001193  0.02945252  0.63218859  1
  C  C5  1  0.15502529  0.15998150  0.77810488  1
  Ta  Ta6  1  -0.07289002  0.38118188  -0.06701693  1
  C  C7  1  0.15651703  0.66898437  0.12455647  1
  Ta  Ta8  1  -0.13965007  0.39398773  0.23503164  1
  N  N9  1  0.11904128  0.69143466  0.40345368  1
  Ta  Ta10  1  -0.12596262  0.24154187  0.71943803  1
  C  C11  1  0.12226376  0.41688184  0.92081326  1
  Ta  Ta12  1  0.06516163  0.59051704  -0.03321179  1
  C  C13  1  0.25488605  0.93277763  0.16404194  1
  Ta  Ta14  1  0.02952367  0.60028957  0.24535242  1
  C  C15  1  0.09623982  0.84545386  0.60347790  1
  Ta  Ta16  1  0.05002054  0.65827114  0.58882070  1
  C  C17  1  0.24648853  0.91937169  0.88568791  1
  Ta  Ta18  1  0.37085022  0.01195652  0.00681534  1
  C  C19  1  0.51354870  0.06962788  0.13633589  1
  Ta  Ta20  1  0.40411756  -0.03300751  0.28508901  1
  C  C21  1  0.64327193  0.18440914  0.51384506  1
  Ta  Ta22  1  0.36674763  0.00127432  0.73233314  1
  C  C23  1  0.46633539  0.10161030  0.85825001  1
  Ta  Ta24  1  0.21345768  0.26395953  -0.07137841  1
  N  N25  1  0.56217772  0.56167448  0.13944470  1
  Ta  Ta26  1  0.45248354  0.14044455  0.48073615  1
  C  C27  1  0.74452363  0.49429071  0.51759167  1
  Ta  Ta28  1  0.28899055  0.23038309  0.66803761  1
  N  N29  1  0.52485994  0.53297242  0.87676335  1
  Ta  Ta30  1  0.28598039  0.75195862  0.00874442  1
  C  C31  1  0.35839746  0.85411029  0.13897577  1
  Ta  Ta32  1  0.22845818  0.77579788  0.28631754  1
  N  N33  1  0.35744344  0.83851439  0.38523689  1
  Ta  Ta34  1  0.17050307  0.79006326  0.77306633  1
  C  C35  1  0.35568432  0.85037942  0.84925841  1
  Ta  Ta36  1  0.58609759  0.16607234  -0.01455725  1
  C  C37  1  0.72122115  0.26813626  0.23534946  1
  Ta  Ta38  1  0.62928651  0.11573316  0.27883127  1
  C  C39  1  0.72897975  0.20843655  0.60359590  1
  Ta  Ta40  1  0.55185528  0.19094521  0.71359370  1
  C  C41  1  0.84530211  0.19398788  0.90153887  1
  Ta  Ta42  1  0.82244043  0.17936127  0.09062237  1
  C  C43  1  0.94709623  0.49757164  0.09404142  1
  Ta  Ta44  1  0.64645050  0.34399355  0.40117532  1
  C  C45  1  0.81270893  0.44807722  0.41717408  1
  Ta  Ta46  1  0.67535380  0.39293495  0.66338397  1
  C  C47  1  0.83826208  0.42248711  0.75258326  1
  Ta  Ta48  1  0.54805239  0.64078703  -0.00263194  1
  N  N49  1  0.90611956  0.71361397  0.27374715  1
  Ta  Ta50  1  0.78623819  0.63523780  0.38967086  1
  C  C51  1  0.87109829  0.71575068  0.53773914  1
  Ta  Ta52  1  0.81754247  0.60797453  0.69113455  1
  N  N53  1  0.97303089  0.64751726  0.76725616  1
