# generated using pymatgen
data_Zr2TaC3
_symmetry_space_group_name_H-M   'P 1'
_cell_length_a   10.50938395
_cell_length_b   10.65082066
_cell_length_c   10.51699356
_cell_angle_alpha   90.35029741
_cell_angle_beta   91.52955235
_cell_angle_gamma   90.08984697
_symmetry_Int_Tables_number   1
_chemical_formula_structural   Zr2TaC3
_chemical_formula_sum   'Zr18 Ta9 C27'
_cell_volume   1176.76136152
_cell_formula_units_Z   9
loop_
 _symmetry_equiv_pos_site_id
 _symmetry_equiv_pos_as_xyz
  1  'x, y, z'
loop_
 _atom_site_type_symbol
 _atom_site_label
 _atom_site_symmetry_multiplicity
 _atom_site_fract_x
 _atom_site_fract_y
 _atom_site_fract_z
 _atom_site_occupancy
  Ta  Ta0  1  -0.13960196  0.10200519  -0.13264061  1
  C  C1  1  0.15130365  0.22307253  0.23878449  1
  Zr  Zr2  1  0.01800649  -0.05004946  0.34496851  1
  C  C3  1  0.16707342  0.15299494  0.53601321  1
  Zr  Zr4  1  -0.03833530  -0.02020867  0.62190796  1
  C  C5  1  0.04371652  0.22203014  0.90409290  1
  Zr  Zr6  1  0.01042557  0.35916007  0.14710449  1
  C  C7  1  0.19926835  0.44029221  0.09159307  1
  Ta  Ta8  1  0.06388774  0.27125188  0.40203244  1
  C  C9  1  0.17585414  0.43573309  0.44798596  1
  Zr  Zr10  1  0.01863955  0.26875545  0.68948075  1
  C  C11  1  0.18026455  0.62867034  0.86914027  1
  Ta  Ta12  1  0.09943992  0.62873850  0.05531091  1
  C  C13  1  0.24162394  0.71307703  0.15906779  1
  Zr  Zr14  1  0.02383550  0.64105585  0.35335893  1
  C  C15  1  0.10512019  0.84367808  0.51022850  1
  Zr  Zr16  1  0.04459198  0.72873246  0.71334970  1
  C  C17  1  0.20397409  0.87188937  0.78486821  1
  Zr  Zr18  1  0.30801310  -0.14654690  -0.00003282  1
  C  C19  1  0.42392290  0.24876075  0.18211608  1
  Zr  Zr20  1  0.31769341  0.12003465  0.33756813  1
  C  C21  1  0.47445012  0.21842964  0.48285035  1
  Zr  Zr22  1  0.25821295  -0.03701662  0.58340083  1
  C  C23  1  0.64441631  0.12707873  0.84617623  1
  Ta  Ta24  1  0.25790629  0.24717950  0.07445905  1
  C  C25  1  0.49685295  0.58151899  0.19514846  1
  Zr  Zr26  1  0.32484337  0.44260496  0.28887057  1
  C  C27  1  0.46989012  0.35155560  0.44553332  1
  Ta  Ta28  1  0.29611813  0.31695441  0.56107389  1
  C  C29  1  0.49215620  0.64811605  0.88173057  1
  Zr  Zr30  1  0.35797133  0.55527200  0.02466606  1
  C  C31  1  0.49716173  0.87210664  0.12657295  1
  Ta  Ta32  1  0.41195572  0.75677044  0.26551169  1
  C  C33  1  0.55362681  0.77290861  0.42834783  1
  Zr  Zr34  1  0.34353756  0.67715152  0.74431655  1
  C  C35  1  0.33041749  0.89205099  0.78429164  1
  Zr  Zr36  1  0.61691387  -0.01459903  0.00737240  1
  C  C37  1  0.87636609  0.22070022  0.04373756  1
  Zr  Zr38  1  0.65438659  -0.06418351  0.34491457  1
  C  C39  1  0.83957633  0.13854042  0.64619017  1
  Zr  Zr40  1  0.66387669  -0.02368496  0.68585601  1
  C  C41  1  0.92966457  0.29632762  0.93857778  1
  Zr  Zr42  1  0.68109735  0.28739664  -0.00747039  1
  C  C43  1  0.95317859  0.55868994  0.18264018  1
  Ta  Ta44  1  0.57243575  0.25014192  0.29997727  1
  C  C45  1  0.84579291  0.63393523  0.46524509  1
  Zr  Zr46  1  0.69209679  0.26996851  0.68877193  1
  C  C47  1  0.83811086  0.33822518  0.83780310  1
  Ta  Ta48  1  0.58625943  0.70702438  0.04072971  1
  C  C49  1  0.84359171  0.82975448  0.30424978  1
  Zr  Zr50  1  0.67934525  0.62536435  0.31185711  1
  C  C51  1  0.83659523  0.76615528  0.41953479  1
  Ta  Ta52  1  0.72126749  0.73637576  0.57882948  1
  C  C53  1  0.84120967  0.83805863  0.72193457  1
