# generated using pymatgen
data_Zr8Ta19C11N16
_symmetry_space_group_name_H-M   'P 1'
_cell_length_a   11.53180151
_cell_length_b   11.48232990
_cell_length_c   11.59765184
_cell_angle_alpha   91.39445435
_cell_angle_beta   90.90729080
_cell_angle_gamma   89.72950344
_symmetry_Int_Tables_number   1
_chemical_formula_structural   Zr8Ta19C11N16
_chemical_formula_sum   'Zr8 Ta19 C11 N16'
_cell_volume   1535.00598284
_cell_formula_units_Z   1
loop_
 _symmetry_equiv_pos_site_id
 _symmetry_equiv_pos_as_xyz
  1  'x, y, z'
loop_
 _atom_site_type_symbol
 _atom_site_label
 _atom_site_symmetry_multiplicity
 _atom_site_fract_x
 _atom_site_fract_y
 _atom_site_fract_z
 _atom_site_occupancy
  Ta  Ta0  1  -0.10331744  0.13531086  -0.03417266  1
  N  N1  1  0.19240668  0.13724055  0.29088660  1
  Zr  Zr2  1  -0.01217898  -0.08558188  0.33517939  1
  C  C3  1  0.05338842  0.09243979  0.49988583  1
  Zr  Zr4  1  0.05967299  -0.03447430  0.63149603  1
  C  C5  1  0.22284464  0.15702747  0.82246360  1
  Ta  Ta6  1  -0.10509968  0.38151201  0.08596776  1
  N  N7  1  0.06605833  0.45662742  0.10942761  1
  Ta  Ta8  1  0.04553687  0.19286894  0.36285430  1
  N  N9  1  0.15760160  0.59416804  0.42081254  1
  Ta  Ta10  1  0.09234161  0.26190875  0.90047021  1
  C  C11  1  0.20030494  0.41977772  0.87049781  1
  Ta  Ta12  1  0.06660828  0.50593612  -0.04555726  1
  N  N13  1  0.07158248  0.76040325  0.25540257  1
  Zr  Zr14  1  0.03617493  0.56826070  0.25548533  1
  C  C15  1  0.05518786  0.82389370  0.50078096  1
  Ta  Ta16  1  0.04624239  0.64820904  0.53446742  1
  N  N17  1  0.23993222  0.96193415  0.61253481  1
  Ta  Ta18  1  0.43299887  -0.02975066  -0.01876448  1
  C  C19  1  0.52018496  0.13860258  0.00203599  1
  Ta  Ta20  1  0.23046181  0.02025440  0.46111079  1
  N  N21  1  0.34725016  0.14463807  0.49008672  1
  Zr  Zr22  1  0.35367594  0.06622090  0.72377911  1
  C  C23  1  0.49556593  0.12556176  0.87816783  1
  Ta  Ta24  1  0.35253478  0.22667036  -0.04577811  1
  N  N25  1  0.60785007  0.36548160  0.11672093  1
  Ta  Ta26  1  0.30471098  0.23377964  0.36470151  1
  N  N27  1  0.42367828  0.67308702  0.71598331  1
  Ta  Ta28  1  0.28470359  0.31950760  0.75603709  1
  N  N29  1  0.57846092  0.66040848  0.87706585  1
  Ta  Ta30  1  0.41731221  0.73161865  -0.12651844  1
  N  N31  1  0.49805026  0.82035675  0.02829225  1
  Ta  Ta32  1  0.18352198  0.75831206  0.37819030  1
  N  N33  1  0.54143222  0.86623010  0.62094702  1
  Zr  Zr34  1  0.36284396  0.81501269  0.61758287  1
  C  C35  1  0.40386294  0.90039685  0.80944506  1
  Ta  Ta36  1  0.68393221  0.05398685  0.03844217  1
  C  C37  1  0.79976793  0.21119862  0.09125876  1
  Ta  Ta38  1  0.79984933  0.09737382  0.36860778  1
  N  N39  1  0.93620534  0.10021839  0.27646660  1
  Zr  Zr40  1  0.61035750  -0.00255444  0.76669213  1
  C  C41  1  0.74591474  0.11936265  0.86142317  1
  Ta  Ta42  1  0.64434030  0.27556807  -0.02628687  1
  N  N43  1  0.86229455  0.54601080  0.21075463  1
  Ta  Ta44  1  0.70055788  0.28199814  0.22032844  1
  N  N45  1  0.90923727  0.60285434  0.46275320  1
  Zr  Zr46  1  0.83128863  0.27603609  0.78442004  1
  C  C47  1  0.93497033  0.38790882  0.89856013  1
  Ta  Ta48  1  0.65417378  0.78924864  -0.04399964  1
  N  N49  1  0.80829662  0.81895940  0.33053419  1
  Zr  Zr50  1  0.78745447  0.63465760  0.34044149  1
  C  C51  1  0.77757927  0.92100852  0.35407959  1
  Ta  Ta52  1  0.59140625  0.73096906  0.70129013  1
  N  N53  1  0.69798561  0.84134343  0.80626563  1
