# generated using pymatgen
data_Zr8Ta19(C5N4)3
_symmetry_space_group_name_H-M   'P 1'
_cell_length_a   11.29304274
_cell_length_b   11.45810237
_cell_length_c   11.43262497
_cell_angle_alpha   90.23887436
_cell_angle_beta   89.67771304
_cell_angle_gamma   89.53288496
_symmetry_Int_Tables_number   1
_chemical_formula_structural   Zr8Ta19(C5N4)3
_chemical_formula_sum   'Zr8 Ta19 C15 N12'
_cell_volume   1479.25983355
_cell_formula_units_Z   1
loop_
 _symmetry_equiv_pos_site_id
 _symmetry_equiv_pos_as_xyz
  1  'x, y, z'
loop_
 _atom_site_type_symbol
 _atom_site_label
 _atom_site_symmetry_multiplicity
 _atom_site_fract_x
 _atom_site_fract_y
 _atom_site_fract_z
 _atom_site_occupancy
  Ta  Ta0  1  -0.16458073  0.11145109  -0.11537859  1
  N  N1  1  0.09181223  0.26315049  0.13283562  1
  Zr  Zr2  1  -0.00721565  -0.03839419  0.36883330  1
  C  C3  1  0.22380636  0.12572196  0.67238830  1
  Zr  Zr4  1  0.06942156  0.00476931  0.67143799  1
  C  C5  1  0.21579800  0.12268870  0.80142286  1
  Ta  Ta6  1  -0.00366451  0.28480690  -0.00833635  1
  C  C7  1  0.09852482  0.54287445  0.15206517  1
  Ta  Ta8  1  0.02148735  0.39017340  0.21532637  1
  N  N9  1  0.21319642  0.63696518  0.55273753  1
  Ta  Ta10  1  0.10065806  0.26843497  0.74551726  1
  C  C11  1  0.12775518  0.38901992  0.90180194  1
  Ta  Ta12  1  0.04076182  0.53369254  -0.01905265  1
  N  N13  1  0.08835584  0.80407120  0.33895677  1
  Zr  Zr14  1  0.00354224  0.66102212  0.28280043  1
  C  C15  1  0.14788423  1.00467365  0.48128983  1
  Ta  Ta16  1  0.13469472  0.78861048  0.51080765  1
  N  N17  1  0.17640193  0.85481244  0.67850787  1
  Ta  Ta18  1  0.37193332  0.03903700  -0.12364876  1
  C  C19  1  0.70259058  0.19293909  0.13924777  1
  Ta  Ta20  1  0.24673178  0.15913979  0.49113362  1
  C  C21  1  0.45506300  0.19164224  0.53951235  1
  Zr  Zr22  1  0.33708642  -0.05045498  0.60439695  1
  C  C23  1  0.49090837  0.17181948  0.81536191  1
  Ta  Ta24  1  0.25393472  0.26056717  -0.05838026  1
  N  N25  1  0.64404951  0.44207801  0.16400668  1
  Ta  Ta26  1  0.42001151  0.34589419  0.45100084  1
  C  C27  1  0.47607323  0.47704601  0.55259037  1
  Ta  Ta28  1  0.36218313  0.24360115  0.69902011  1
  N  N29  1  0.40215117  0.57188053  0.79629695  1
  Ta  Ta30  1  0.26052052  0.46803721  -0.21303002  1
  N  N31  1  0.62630800  0.86567236  0.24118885  1
  Ta  Ta32  1  0.36491463  0.62321831  0.48950649  1
  N  N33  1  0.43448478  0.73235854  0.60026377  1
  Zr  Zr34  1  0.30196292  0.74406831  0.75660344  1
  C  C35  1  0.42880223  0.89753640  0.77691971  1
  Ta  Ta36  1  0.60526699  0.13261669  -0.03376469  1
  C  C37  1  0.78911251  0.12560977  0.07475273  1
  Ta  Ta38  1  0.71679768  0.01611988  0.22108297  1
  N  N39  1  0.82769252  0.04182728  0.33770255  1
  Zr  Zr40  1  0.58671910  0.01079989  0.72818281  1
  C  C41  1  0.73909545  0.26140624  0.84793118  1
  Ta  Ta42  1  0.72031500  0.34221591  0.01035379  1
  C  C43  1  0.87987968  0.38927941  0.10440896  1
  Ta  Ta44  1  0.59095203  0.29941634  0.23025426  1
  N  N45  1  0.87677611  0.68047276  0.46746000  1
  Zr  Zr46  1  0.60758763  0.29339302  0.70767929  1
  C  C47  1  0.87169398  0.45650720  0.99490143  1
  Ta  Ta48  1  0.77436940  0.54386615  0.14586572  1
  N  N49  1  0.84338755  0.69165434  0.19287212  1
  Zr  Zr50  1  0.73309875  0.75800706  0.32087610  1
  C  C51  1  0.95672004  0.73141096  0.51623609  1
  Ta  Ta52  1  0.51700021  0.59410818  0.67694646  1
  N  N53  1  0.70518572  1.00666351  0.87030616  1
