# generated using pymatgen
data_TaC
_symmetry_space_group_name_H-M   'P 1'
_cell_length_a   8.83756010
_cell_length_b   8.83760722
_cell_length_c   8.83761309
_cell_angle_alpha   89.99995217
_cell_angle_beta   89.99993664
_cell_angle_gamma   89.99997865
_symmetry_Int_Tables_number   1
_chemical_formula_structural   TaC
_chemical_formula_sum   'Ta27 C27'
_cell_volume   690.24307815
_cell_formula_units_Z   27
loop_
 _symmetry_equiv_pos_site_id
 _symmetry_equiv_pos_as_xyz
  1  'x, y, z'
loop_
 _atom_site_type_symbol
 _atom_site_label
 _atom_site_symmetry_multiplicity
 _atom_site_fract_x
 _atom_site_fract_y
 _atom_site_fract_z
 _atom_site_occupancy
  Ta  Ta0  1  -0.00063697  -0.00107718  -0.00309139  1
  C  C1  1  0.16793201  0.16708093  0.16952517  1
  Ta  Ta2  1  0.00238034  0.00107627  0.33506268  1
  C  C3  1  0.16820403  0.16555844  0.49519242  1
  Ta  Ta4  1  -0.00041881  -0.00304510  0.66912821  1
  C  C5  1  0.16730556  0.16574351  0.83426801  1
  Ta  Ta6  1  -0.00106661  0.33444798  -0.00126734  1
  C  C7  1  0.16524145  0.50149120  0.16696603  1
  Ta  Ta8  1  0.00095793  0.33239106  0.33342657  1
  C  C9  1  0.16556838  0.49975246  0.50082375  1
  Ta  Ta10  1  -0.00085457  0.33770168  0.66873065  1
  C  C11  1  0.16579963  0.49810626  0.83114358  1
  Ta  Ta12  1  0.00028136  0.66756646  0.00320148  1
  C  C13  1  0.16531301  0.83066291  0.16744075  1
  Ta  Ta14  1  0.00206221  0.66728520  0.33108218  1
  C  C15  1  0.16569591  0.83386837  0.49901272  1
  Ta  Ta16  1  0.00092887  0.66619265  0.66688692  1
  C  C17  1  0.16527150  0.83519237  0.83239375  1
  Ta  Ta18  1  0.33436365  0.00139105  -0.00259366  1
  C  C19  1  0.49881538  0.16803363  0.16697077  1
  Ta  Ta20  1  0.33117718  0.00398732  0.33555559  1
  C  C21  1  0.49914416  0.16581357  0.49741464  1
  Ta  Ta22  1  0.33387462  -0.00017777  0.66810519  1
  C  C23  1  0.49735278  0.16608990  0.83455035  1
  Ta  Ta24  1  0.33495019  0.33213292  -0.00080617  1
  C  C25  1  0.50025140  0.50190601  0.16469333  1
  Ta  Ta26  1  0.33219265  0.32901821  0.33336777  1
  C  C27  1  0.50061433  0.50084946  0.50248982  1
  Ta  Ta28  1  0.33404071  0.33544164  0.66847913  1
  C  C29  1  0.49816763  0.49906157  0.83168679  1
  Ta  Ta30  1  0.33552760  0.66728008  0.00241184  1
  C  C31  1  0.50062747  0.82934272  0.16457906  1
  Ta  Ta32  1  0.33300301  0.66773466  0.33185726  1
  C  C33  1  0.50101931  0.83244469  0.50103927  1
  Ta  Ta34  1  0.33508925  0.66572206  0.66697184  1
  C  C35  1  0.49898387  0.83396503  0.83323455  1
  Ta  Ta36  1  0.66777719  -0.00059925  -0.00103704  1
  C  C37  1  0.83164933  0.16800918  0.16706941  1
  Ta  Ta38  1  0.66786237  0.00195249  0.33598485  1
  C  C39  1  0.83130896  0.16633785  0.49755999  1
  Ta  Ta40  1  0.66811110  -0.00211365  0.66613562  1
  C  C41  1  0.83376194  0.16602791  0.83438417  1
  Ta  Ta42  1  0.66781859  0.33320658  0.00124297  1
  C  C43  1  0.83295745  0.50037268  0.16570388  1
  Ta  Ta44  1  0.66834917  0.33113582  0.33349215  1
  C  C45  1  0.83238465  0.49858763  0.50182890  1
  Ta  Ta46  1  0.66814286  0.33653564  0.66639394  1
  C  C47  1  0.83456583  0.49657654  0.83138744  1
  Ta  Ta48  1  0.66556047  0.66816919  0.00457680  1
  C  C49  1  0.83278091  0.83082064  0.16501443  1
  Ta  Ta50  1  0.66629295  0.66768486  0.33239039  1
  C  C51  1  0.83170623  0.83424033  0.50098801  1
  Ta  Ta52  1  0.66561764  0.66648543  0.66409299  1
  C  C53  1  0.83419201  0.83653785  0.83285757  1
