# generated using pymatgen
data_Zr16Ta11C10N17
_symmetry_space_group_name_H-M   'P 1'
_cell_length_a   10.89369164
_cell_length_b   11.38439852
_cell_length_c   11.41926791
_cell_angle_alpha   88.96883618
_cell_angle_beta   89.58171789
_cell_angle_gamma   90.51688576
_symmetry_Int_Tables_number   1
_chemical_formula_structural   Zr16Ta11C10N17
_chemical_formula_sum   'Zr16 Ta11 C10 N17'
_cell_volume   1415.86980873
_cell_formula_units_Z   1
loop_
 _symmetry_equiv_pos_site_id
 _symmetry_equiv_pos_as_xyz
  1  'x, y, z'
loop_
 _atom_site_type_symbol
 _atom_site_label
 _atom_site_symmetry_multiplicity
 _atom_site_fract_x
 _atom_site_fract_y
 _atom_site_fract_z
 _atom_site_occupancy
  Ta  Ta0  1  -0.04077008  0.09776006  -0.09590767  1
  N  N1  1  0.22879728  0.11857395  0.29907998  1
  Zr  Zr2  1  0.02574459  -0.04797956  0.42447296  1
  C  C3  1  0.16671212  0.13669443  0.53566597  1
  Zr  Zr4  1  -0.00910073  0.10372235  0.64622660  1
  C  C5  1  0.14057025  0.12590372  0.81168765  1
  Zr  Zr6  1  -0.03648400  0.30751515  0.11849573  1
  N  N7  1  0.17456756  0.35387019  0.31368919  1
  Ta  Ta8  1  0.10373649  0.21642036  0.37377949  1
  N  N9  1  0.09650090  0.59634515  0.41018349  1
  Zr  Zr10  1  0.05079483  0.33459573  0.80583659  1
  C  C11  1  0.07253116  0.39769732  0.98389806  1
  Ta  Ta12  1  -0.08897955  0.50300902  -0.05164939  1
  N  N13  1  0.09141701  0.80097464  0.27537118  1
  Zr  Zr14  1  -0.05675057  0.68115304  0.30217303  1
  C  C15  1  0.14302832  0.82105776  0.53325564  1
  Ta  Ta16  1  0.01758665  0.65910217  0.54779570  1
  N  N17  1  0.25223880  0.80129027  0.81509159  1
  Zr  Zr18  1  0.45698113  0.00210219  0.04345918  1
  C  C19  1  0.45229090  0.17936857  -0.07845794  1
  Zr  Zr20  1  0.34356092  0.09421376  0.43763252  1
  N  N21  1  0.44526848  0.23902852  0.39191069  1
  Zr  Zr22  1  0.31369064  -0.01644405  0.79890631  1
  C  C23  1  0.57182205  0.15828694  0.96354395  1
  Ta  Ta24  1  0.25497728  0.20109174  -0.05559792  1
  N  N25  1  0.46286894  0.41003382  0.21231739  1
  Zr  Zr26  1  0.31997037  0.28967820  0.22533703  1
  N  N27  1  0.60712249  0.48771691  0.43297824  1
  Ta  Ta28  1  0.25567598  0.20836827  0.67784814  1
  N  N29  1  0.54040366  0.68933858  0.80347989  1
  Ta  Ta30  1  0.39393875  0.74965210  -0.10353828  1
  N  N31  1  0.59654502  0.95318425  0.15989444  1
  Ta  Ta32  1  0.19972336  0.73485674  0.37966318  1
  N  N33  1  0.58636644  0.77356858  0.47229726  1
  Zr  Zr34  1  0.28398664  0.73684048  0.64756036  1
  C  C35  1  0.49530618  0.91180088  0.86815397  1
  Zr  Zr36  1  0.72684239  0.04488456  0.05778589  1
  N  N37  1  0.87501542  0.16947453  0.03987497  1
  Zr  Zr38  1  0.63294701  -0.11473627  0.32396847  1
  N  N39  1  0.90173488  0.00379647  0.53807103  1
  Zr  Zr40  1  0.62948588  0.06416782  0.79305257  1
  C  C41  1  0.85152785  0.18837327  0.77488591  1
  Zr  Zr42  1  0.74495067  0.28710938  -0.08639885  1
  N  N43  1  0.81600333  0.41211106  0.05075067  1
  Ta  Ta44  1  0.56319041  0.35851223  0.33160023  1
  N  N45  1  0.86474034  0.67766317  0.48088497  1
  Zr  Zr46  1  0.82178000  0.33822718  0.64115689  1
  C  C47  1  0.86698036  0.44014401  0.78684393  1
  Ta  Ta48  1  0.65546269  0.80192710  -0.09932388  1
  N  N49  1  0.80142303  0.81664362  0.26317126  1
  Zr  Zr50  1  0.67978098  0.62535167  0.51776499  1
  C  C51  1  0.88126874  0.87207978  0.32143458  1
  Ta  Ta52  1  0.55966504  0.82631023  0.68442231  1
  N  N53  1  0.71456073  0.87756799  0.75351989  1
