# generated using pymatgen
data_Zr2Ta7C9
_symmetry_space_group_name_H-M   'P 1'
_cell_length_a   10.58185294
_cell_length_b   10.41921639
_cell_length_c   10.82046261
_cell_angle_alpha   90.08773428
_cell_angle_beta   89.63716121
_cell_angle_gamma   89.03793474
_symmetry_Int_Tables_number   1
_chemical_formula_structural   Zr2Ta7C9
_chemical_formula_sum   'Zr6 Ta21 C27'
_cell_volume   1192.81225038
_cell_formula_units_Z   3
loop_
 _symmetry_equiv_pos_site_id
 _symmetry_equiv_pos_as_xyz
  1  'x, y, z'
loop_
 _atom_site_type_symbol
 _atom_site_label
 _atom_site_symmetry_multiplicity
 _atom_site_fract_x
 _atom_site_fract_y
 _atom_site_fract_z
 _atom_site_occupancy
  Ta  Ta0  1  -0.09973357  -0.01856278  0.07488013  1
  C  C1  1  0.20501562  0.08173181  0.01231658  1
  Zr  Zr2  1  0.03721225  -0.03084021  0.30895387  1
  C  C3  1  0.12466722  0.07282191  0.47633358  1
  Ta  Ta4  1  -0.01460565  -0.01897054  0.58366037  1
  C  C5  1  0.24928373  0.19267050  0.98402883  1
  Ta  Ta6  1  -0.06108968  0.41627683  0.00901849  1
  C  C7  1  0.12833907  0.44896496  0.01620088  1
  Ta  Ta8  1  -0.18347158  0.17931903  0.46774850  1
  C  C9  1  0.20509404  0.55756129  0.56819464  1
  Ta  Ta10  1  -0.08272798  0.29034273  0.69725250  1
  C  C11  1  0.32182901  0.51616875  0.81793255  1
  Ta  Ta12  1  -0.02855102  0.70331007  0.01063723  1
  C  C13  1  0.02811489  0.82683307  0.14982132  1
  Zr  Zr14  1  -0.12715400  0.71740909  0.26731321  1
  C  C15  1  0.23755968  0.82625275  0.59911195  1
  Ta  Ta16  1  0.09227084  0.72558280  0.49137269  1
  C  C17  1  0.34752943  0.81121401  0.84857838  1
  Ta  Ta18  1  0.37466944  -0.04156757  -0.00611241  1
  C  C19  1  0.50559955  0.11073318  -0.02785985  1
  Ta  Ta20  1  0.28132654  -0.05311581  0.45490831  1
  C  C21  1  0.51297166  0.39273442  0.50962147  1
  Ta  Ta22  1  0.41731890  -0.10510227  0.67234273  1
  C  C23  1  0.53799253  0.23187130  0.96301922  1
  Ta  Ta24  1  0.31531461  0.37915652  -0.01253146  1
  C  C25  1  0.50960789  0.50985439  0.11423427  1
  Ta  Ta26  1  0.44391730  0.47483850  0.32520808  1
  C  C27  1  0.52206723  0.53524255  0.53005665  1
  Ta  Ta28  1  0.35044530  0.43943887  0.63415187  1
  C  C29  1  0.44951128  0.47052175  0.82448197  1
  Ta  Ta30  1  0.40710716  0.63633438  -0.02416759  1
  C  C31  1  0.54339273  0.77315494  -0.04733097  1
  Ta  Ta32  1  0.35895580  0.67897719  0.49554546  1
  C  C33  1  0.50756311  0.84874181  0.48691146  1
  Zr  Zr34  1  0.20333878  0.68586635  0.75621400  1
  C  C35  1  0.48299634  0.83688265  0.85272028  1
  Ta  Ta36  1  0.65170414  -0.06048230  -0.05146654  1
  C  C37  1  0.88097440  0.16346839  -0.01802603  1
  Ta  Ta38  1  0.74651238  -0.08351668  0.42020031  1
  C  C39  1  0.83635389  0.11616089  0.66102735  1
  Zr  Zr40  1  0.68243943  -0.02230038  0.66394384  1
  C  C41  1  0.84581917  0.25420286  0.90359799  1
  Ta  Ta42  1  0.60308538  0.41365526  -0.06025661  1
  C  C43  1  0.86156866  0.55977593  0.11854705  1
  Ta  Ta44  1  0.69887020  0.46184407  0.43161372  1
  C  C45  1  0.81518080  0.37400746  0.55421572  1
  Zr  Zr46  1  0.63808095  0.29559540  0.66672431  1
  C  C47  1  0.78356658  0.35678688  0.84194973  1
  Ta  Ta48  1  0.67595950  0.65190690  0.06147969  1
  C  C49  1  0.75189600  0.83936251  0.10812871  1
  Zr  Zr50  1  0.56573319  0.72383447  0.30928376  1
  C  C51  1  0.92635081  0.83403618  0.44722939  1
  Ta  Ta52  1  0.61951110  0.69807244  0.58189416  1
  C  C53  1  0.81271498  0.82094051  0.97514425  1
