# generated using pymatgen
data_ZrTa8N9
_symmetry_space_group_name_H-M   'P 1'
_cell_length_a   11.64864362
_cell_length_b   11.21966538
_cell_length_c   11.43829186
_cell_angle_alpha   90.00077754
_cell_angle_beta   90.07581704
_cell_angle_gamma   90.00078099
_symmetry_Int_Tables_number   1
_chemical_formula_structural   ZrTa8N9
_chemical_formula_sum   'Zr3 Ta24 N27'
_cell_volume   1494.91347513
_cell_formula_units_Z   3
loop_
 _symmetry_equiv_pos_site_id
 _symmetry_equiv_pos_as_xyz
  1  'x, y, z'
loop_
 _atom_site_type_symbol
 _atom_site_label
 _atom_site_symmetry_multiplicity
 _atom_site_fract_x
 _atom_site_fract_y
 _atom_site_fract_z
 _atom_site_occupancy
  Ta  Ta0  1  -0.00952276  0.02730055  0.05118428  1
  N  N1  1  0.28706086  0.16666512  0.18240506  1
  Ta  Ta2  1  -0.02439772  0.02647508  0.27852785  1
  N  N3  1  0.11509643  0.16671381  0.34046696  1
  Ta  Ta4  1  -0.08781432  0.03022292  0.66654513  1
  N  N5  1  0.12353642  0.16657633  1.00597584  1
  Ta  Ta6  1  -0.00909927  0.30549017  0.05069356  1
  N  N7  1  0.11171136  0.34836185  0.17337334  1
  Ta  Ta8  1  -0.02481501  0.30728663  0.27799359  1
  N  N9  1  0.17572071  0.55472120  0.55305612  1
  Ta  Ta10  1  -0.08783322  0.30311756  0.66653423  1
  N  N11  1  0.17529373  0.55468372  0.77992179  1
  Ta  Ta12  1  0.01107479  0.66697684  0.05294282  1
  N  N13  1  0.11180455  0.98495034  0.17343772  1
  Ta  Ta14  1  0.00973067  0.66668262  0.28137244  1
  N  N15  1  0.17574256  0.77865475  0.55305768  1
  Ta  Ta16  1  0.08596205  0.66669787  0.66608235  1
  N  N17  1  0.17532038  0.77870941  0.77991333  1
  Ta  Ta18  1  0.25269199  0.02771985  0.05534930  1
  N  N19  1  0.35691113  0.16659237  0.07197535  1
  Ta  Ta20  1  0.23623375  0.02740148  0.29486078  1
  N  N21  1  0.67738326  0.16664770  0.53554686  1
  Ta  Ta22  1  0.44211529  -0.10414643  0.66604275  1
  N  N23  1  0.67827410  0.16667890  0.80181528  1
  Ta  Ta24  1  0.25311086  0.30603668  0.05552012  1
  N  N25  1  0.32419729  0.39589651  0.18122272  1
  Ta  Ta26  1  0.23583563  0.30563342  0.29522677  1
  N  N27  1  0.47728211  0.55070878  0.55436020  1
  Ta  Ta28  1  0.44210382  0.43747060  0.66604573  1
  N  N29  1  0.47739580  0.55054198  0.77806714  1
  Ta  Ta30  1  0.18871002  0.66671024  -0.09985315  1
  N  N31  1  0.32424891  0.93736741  0.18087849  1
  Ta  Ta32  1  0.18903338  0.66669104  0.43263027  1
  N  N33  1  0.47728420  0.78261291  0.55436051  1
  Zr  Zr34  1  0.31840069  0.66666733  0.66659218  1
  N  N35  1  0.47739878  0.78278655  0.77806507  1
  Ta  Ta36  1  0.78769868  0.04797046  -0.10885691  1
  N  N37  1  0.94600951  0.16662310  0.16520045  1
  Ta  Ta38  1  0.78453111  0.04857504  0.44360167  1
  N  N39  1  0.90820743  0.16668758  0.54279650  1
  Zr  Zr40  1  0.65452773  0.02337927  0.66816558  1
  N  N41  1  0.90811751  0.16666304  0.79285661  1
  Ta  Ta42  1  0.78770508  0.28533217  -0.10877472  1
  N  N43  1  0.88731639  0.39333715  0.15841526  1
  Ta  Ta44  1  0.78448815  0.28477532  0.44359331  1
  N  N45  1  0.80195204  0.39613246  0.56076479  1
  Zr  Zr46  1  0.65447249  0.30992157  0.66819514  1
  N  N47  1  0.80210979  0.39674633  0.77539106  1
  Ta  Ta48  1  0.79810746  0.66652817  0.05922476  1
  N  N49  1  0.88743954  0.93998419  0.15913337  1
  Ta  Ta50  1  0.79671571  0.66658479  0.27573053  1
  N  N51  1  0.80201430  0.93726254  0.56074946  1
  Ta  Ta52  1  0.56325293  0.66666027  0.66623206  1
  N  N53  1  0.80215091  0.93653247  0.77539062  1
