# generated using pymatgen
data_Zr6Ta3C2N7
_symmetry_space_group_name_H-M   'P 1'
_cell_length_a   11.44441680
_cell_length_b   11.47714208
_cell_length_c   11.57556334
_cell_angle_alpha   90.25863384
_cell_angle_beta   88.66946054
_cell_angle_gamma   89.66551850
_symmetry_Int_Tables_number   1
_chemical_formula_structural   Zr6Ta3C2N7
_chemical_formula_sum   'Zr18 Ta9 C6 N21'
_cell_volume   1519.98866705
_cell_formula_units_Z   3
loop_
 _symmetry_equiv_pos_site_id
 _symmetry_equiv_pos_as_xyz
  1  'x, y, z'
loop_
 _atom_site_type_symbol
 _atom_site_label
 _atom_site_symmetry_multiplicity
 _atom_site_fract_x
 _atom_site_fract_y
 _atom_site_fract_z
 _atom_site_occupancy
  Ta  Ta0  1  -0.09106923  0.07634171  -0.13406758  1
  N  N1  1  0.12023274  0.22228255  0.31036134  1
  Zr  Zr2  1  -0.02469975  -0.18211003  0.35155048  1
  C  C3  1  0.12117444  0.13852264  0.55891951  1
  Zr  Zr4  1  -0.04942163  0.04767357  0.52101444  1
  N  N5  1  0.05157742  0.16324686  0.87004640  1
  Zr  Zr6  1  -0.02666975  0.31133930  -0.02201012  1
  N  N7  1  0.19888432  0.47643132  0.23649630  1
  Ta  Ta8  1  0.05581246  0.28189597  0.44806310  1
  N  N9  1  0.16854938  0.40529408  0.48129304  1
  Zr  Zr10  1  0.04412589  0.24347915  0.71130955  1
  N  N11  1  0.23075071  0.57781007  1.01861633  1
  Ta  Ta12  1  0.09751157  0.57817899  0.14303739  1
  N  N13  1  0.12338453  0.70407480  0.29862405  1
  Zr  Zr14  1  0.08340516  0.56046345  0.41656576  1
  C  C15  1  0.08607991  0.90448003  0.50294308  1
  Zr  Zr16  1  -0.05390106  0.79055911  0.62536441  1
  N  N17  1  0.28232237  0.86736842  0.79228158  1
  Zr  Zr18  1  0.40915287  -0.03032758  -0.07710355  1
  N  N19  1  0.53358140  0.08248449  -0.00756396  1
  Zr  Zr20  1  0.19627015  0.06933458  0.38120146  1
  N  N21  1  0.34222889  0.18139929  0.42100114  1
  Zr  Zr22  1  0.18660810  -0.02815087  0.66750300  1
  N  N23  1  0.71792831  0.12296566  0.83014204  1
  Ta  Ta24  1  0.28544404  0.43461564  0.08886652  1
  N  N25  1  0.43625170  0.39713242  0.16014211  1
  Zr  Zr26  1  0.29268403  0.34998551  0.34676273  1
  N  N27  1  0.43945264  0.43637242  0.40783191  1
  Ta  Ta28  1  0.28102534  0.21847278  0.57100803  1
  N  N29  1  0.45258131  0.66389894  0.80655988  1
  Zr  Zr30  1  0.30867951  0.71372823  -0.08708458  1
  N  N31  1  0.44540475  0.80216355  0.00043477  1
  Ta  Ta32  1  0.20932372  0.79529674  0.43107119  1
  N  N33  1  0.64198705  0.73704040  0.50423939  1
  Zr  Zr34  1  0.41694184  0.81519645  0.67855036  1
  C  C35  1  0.56539133  0.89903507  0.78353221  1
  Zr  Zr36  1  0.66799015  -0.01576562  -0.05577398  1
  N  N37  1  0.84917671  0.16161321  0.01065535  1
  Zr  Zr38  1  0.68704355  -0.11117554  0.40998967  1
  N  N39  1  0.89491507  0.11712281  0.68755530  1
  Zr  Zr40  1  0.72437676  -0.00419778  0.68590710  1
  C  C41  1  0.90329960  0.37705318  0.78531908  1
  Zr  Zr42  1  0.69761262  0.24801394  -0.03423915  1
  N  N43  1  1.01073490  0.45682896  0.07806025  1
  Ta  Ta44  1  0.51371528  0.47642249  0.27881302  1
  N  N45  1  0.93558350  0.66912370  0.48238366  1
  Zr  Zr46  1  0.76957293  0.25372518  0.69964970  1
  C  C47  1  0.81210581  0.36378830  0.86065797  1
  Ta  Ta48  1  0.56638613  0.74399913  -0.10769719  1
  N  N49  1  0.79667606  0.78851644  0.31102404  1
  Zr  Zr50  1  0.77621803  0.64111435  0.41029016  1
  C  C51  1  0.81777629  0.91028831  0.53618282  1
  Ta  Ta52  1  0.68337518  0.76412568  0.66751240  1
  N  N53  1  0.81445497  0.83142754  0.75620611  1
