# generated using pymatgen
data_Zr27C8N19
_symmetry_space_group_name_H-M   'P 1'
_cell_length_a   11.10649401
_cell_length_b   11.30228116
_cell_length_c   11.52267367
_cell_angle_alpha   90.14740122
_cell_angle_beta   89.45031241
_cell_angle_gamma   90.21952502
_symmetry_Int_Tables_number   1
_chemical_formula_structural   Zr27C8N19
_chemical_formula_sum   'Zr27 C8 N19'
_cell_volume   1446.34462117
_cell_formula_units_Z   1
loop_
 _symmetry_equiv_pos_site_id
 _symmetry_equiv_pos_as_xyz
  1  'x, y, z'
loop_
 _atom_site_type_symbol
 _atom_site_label
 _atom_site_symmetry_multiplicity
 _atom_site_fract_x
 _atom_site_fract_y
 _atom_site_fract_z
 _atom_site_occupancy
  Zr  Zr0  1  0.07803100  0.11489515  -0.08422111  1
  N  N1  1  0.20145184  0.20895719  0.30508495  1
  Zr  Zr2  1  0.00180365  -0.07285440  0.43956575  1
  C  C3  1  0.09261066  0.09686350  0.49772297  1
  Zr  Zr4  1  0.09270558  0.01926415  0.67458231  1
  C  C5  1  0.20512142  0.17173704  0.74513564  1
  Zr  Zr6  1  -0.03166485  0.35944192  0.00723053  1
  N  N7  1  0.18631195  0.50764817  0.29626987  1
  Zr  Zr8  1  0.02366378  0.20020140  0.34830216  1
  N  N9  1  0.17129261  0.58847092  0.35991682  1
  Zr  Zr10  1  0.05997423  0.32623911  0.75410861  1
  N  N11  1  0.05157510  0.45953334  0.88131517  1
  Zr  Zr12  1  -0.09814931  0.55422032  -0.17842374  1
  N  N13  1  0.13561026  0.83779688  0.32867550  1
  Zr  Zr14  1  0.01067788  0.69670971  0.29866557  1
  C  C15  1  0.11120641  0.83909801  0.60041423  1
  Zr  Zr16  1  -0.06755752  0.75745127  0.62937933  1
  N  N17  1  0.31368503  0.79748991  0.81332018  1
  Zr  Zr18  1  0.31602390  -0.04633516  -0.09470988  1
  N  N19  1  0.50967278  0.17452629  0.19209341  1
  Zr  Zr20  1  0.26394038  0.00490366  0.41780510  1
  N  N21  1  0.37035177  0.15583260  0.48681512  1
  Zr  Zr22  1  0.38611496  0.07769434  0.66258942  1
  C  C23  1  0.46402803  0.09266565  0.84641116  1
  Zr  Zr24  1  0.33547307  0.23891706  -0.12379289  1
  N  N25  1  0.56660070  0.42224554  0.28513249  1
  Zr  Zr26  1  0.37643175  0.24688739  0.31732529  1
  N  N27  1  0.47854975  0.42447966  0.35096890  1
  Zr  Zr28  1  0.21744459  0.24589673  0.54738658  1
  N  N29  1  0.57507621  0.64371272  0.83933925  1
  Zr  Zr30  1  0.42613796  0.70611478  -0.08097404  1
  N  N31  1  0.46000914  0.87618715  0.02226645  1
  Zr  Zr32  1  0.28807627  0.74145408  0.35256311  1
  N  N33  1  0.35705496  0.85577263  0.47698510  1
  Zr  Zr34  1  0.29450774  0.78646142  0.63519105  1
  C  C35  1  0.56017460  0.87873633  0.95611560  1
  Zr  Zr36  1  0.51858893  0.07652417  0.04380955  1
  N  N37  1  0.77396565  0.25191654  0.17518863  1
  Zr  Zr38  1  0.76397359  -0.03092194  0.34028087  1
  N  N39  1  0.91456329  0.06029631  0.31930147  1
  Zr  Zr40  1  0.60599485  -0.03405736  0.78788402  1
  C  C41  1  0.92432624  0.21762012  0.86518625  1
  Zr  Zr42  1  0.67956261  0.31527239  0.04671140  1
  N  N43  1  0.80497191  0.46474459  0.03104969  1
  Zr  Zr44  1  0.64908059  0.24189943  0.29613616  1
  N  N45  1  0.93610252  0.65606563  0.46094407  1
  Zr  Zr46  1  0.76944875  0.29665744  0.78722145  1
  C  C47  1  0.77220248  0.44054176  0.92131938  1
  Zr  Zr48  1  0.70967197  0.73748654  -0.07057688  1
  N  N49  1  0.85099703  0.81234926  0.28989698  1
  Zr  Zr50  1  0.77056264  0.71290244  0.42038614  1
  C  C51  1  0.80276511  0.87894807  0.52151894  1
  Zr  Zr52  1  0.65207125  0.68566051  0.68175184  1
  N  N53  1  0.81713231  0.72677766  0.77543405  1
