# generated using pymatgen
data_Ta27C8N19
_symmetry_space_group_name_H-M   'P 1'
_cell_length_a   11.27843950
_cell_length_b   11.63149049
_cell_length_c   11.63472803
_cell_angle_alpha   91.03234934
_cell_angle_beta   89.39139791
_cell_angle_gamma   89.69265337
_symmetry_Int_Tables_number   1
_chemical_formula_structural   Ta27C8N19
_chemical_formula_sum   'Ta27 C8 N19'
_cell_volume   1525.94511946
_cell_formula_units_Z   1
loop_
 _symmetry_equiv_pos_site_id
 _symmetry_equiv_pos_as_xyz
  1  'x, y, z'
loop_
 _atom_site_type_symbol
 _atom_site_label
 _atom_site_symmetry_multiplicity
 _atom_site_fract_x
 _atom_site_fract_y
 _atom_site_fract_z
 _atom_site_occupancy
  Ta  Ta0  1  0.01356477  0.12762114  -0.05527287  1
  N  N1  1  0.22998027  0.25574027  0.23205173  1
  Ta  Ta2  1  -0.10384961  -0.02568669  0.39748003  1
  C  C3  1  0.16031279  0.10192212  0.58086129  1
  Ta  Ta4  1  0.03485165  -0.04664496  0.60603270  1
  C  C5  1  0.16881132  0.14935934  0.85025150  1
  Ta  Ta6  1  -0.02121706  0.40368803  -0.06469986  1
  N  N7  1  0.16198704  0.49588716  0.31602586  1
  Ta  Ta8  1  0.10025280  0.34590631  0.27323154  1
  N  N9  1  0.19517228  0.41870874  0.41008850  1
  Ta  Ta10  1  0.05283621  0.18927938  0.70178697  1
  N  N11  1  0.03425410  0.36884142  0.74734003  1
  Ta  Ta12  1  -0.23903523  0.53584518  -0.02121171  1
  N  N13  1  0.18502672  0.80929125  0.30559092  1
  Ta  Ta14  1  0.07397467  0.76500343  0.42488500  1
  C  C15  1  0.19632824  0.82125729  0.54009918  1
  Ta  Ta16  1  -0.11720556  0.71800005  0.65027278  1
  N  N17  1  0.26354118  0.91625779  0.77414799  1
  Ta  Ta18  1  0.34927482  -0.07301156  -0.07643798  1
  N  N19  1  0.47945577  0.15745146  0.09205247  1
  Ta  Ta20  1  0.23291621  -0.00639789  0.46372124  1
  N  N21  1  0.45770702  0.18917535  0.35532307  1
  Ta  Ta22  1  0.28724508  0.08079690  0.72378731  1
  C  C23  1  0.43230438  0.09596167  0.84794734  1
  Ta  Ta24  1  0.31440323  0.15876717  -0.01973791  1
  N  N25  1  0.47930133  0.37829318  0.21757710  1
  Ta  Ta26  1  0.34296797  0.31866636  0.34483764  1
  N  N27  1  0.43107189  0.45497031  0.28008986  1
  Ta  Ta28  1  0.19740642  0.32595743  0.82498714  1
  N  N29  1  0.64312951  0.63604454  0.90497819  1
  Ta  Ta30  1  0.48520471  0.72007092  -0.15389969  1
  N  N31  1  0.48896377  0.80534151  0.27449846  1
  Ta  Ta32  1  0.33823216  0.78650994  0.37681979  1
  N  N33  1  0.61669732  0.79954082  0.48174389  1
  Ta  Ta34  1  0.34299387  0.83002379  0.64778370  1
  C  C35  1  0.53580314  0.88230337  0.91733367  1
  Ta  Ta36  1  0.56827863  0.06836655  -0.03112839  1
  N  N37  1  0.96408328  0.25733287  0.03600425  1
  Ta  Ta38  1  0.58710887  -0.09412228  0.34834153  1
  N  N39  1  0.92727779  0.06905646  0.52855583  1
  Ta  Ta40  1  0.52798550  -0.02948505  0.74339815  1
  C  C41  1  0.87827314  0.15189458  0.81150961  1
  Ta  Ta42  1  0.78747324  0.24649516  -0.03609288  1
  N  N43  1  0.91978990  0.53148957  0.02759088  1
  Ta  Ta44  1  0.55075138  0.22713354  0.22390135  1
  N  N45  1  0.76077439  0.64019099  0.56867695  1
  Ta  Ta46  1  0.85513846  0.31577130  0.73405849  1
  C  C47  1  0.79009958  0.40829473  0.86397041  1
  Ta  Ta48  1  0.70402168  0.79601105  -0.10983546  1
  N  N49  1  0.76163483  0.88254308  0.31942857  1
  Ta  Ta50  1  0.77945351  0.74191927  0.42318079  1
  C  C51  1  0.91352067  0.83386069  0.51407603  1
  Ta  Ta52  1  0.61888125  0.74629036  0.62980207  1
  N  N53  1  0.76078874  0.81621458  0.73219503  1
