# generated using pymatgen
data_Zr6Ta21C13N14
_symmetry_space_group_name_H-M   'P 1'
_cell_length_a   11.43342086
_cell_length_b   11.46831334
_cell_length_c   11.55136541
_cell_angle_alpha   89.91077980
_cell_angle_beta   90.54085303
_cell_angle_gamma   90.48293312
_symmetry_Int_Tables_number   1
_chemical_formula_structural   Zr6Ta21C13N14
_chemical_formula_sum   'Zr6 Ta21 C13 N14'
_cell_volume   1514.51580937
_cell_formula_units_Z   1
loop_
 _symmetry_equiv_pos_site_id
 _symmetry_equiv_pos_as_xyz
  1  'x, y, z'
loop_
 _atom_site_type_symbol
 _atom_site_label
 _atom_site_symmetry_multiplicity
 _atom_site_fract_x
 _atom_site_fract_y
 _atom_site_fract_z
 _atom_site_occupancy
  Ta  Ta0  1  -0.03037589  0.08974533  -0.07741745  1
  N  N1  1  0.25507622  0.13315392  0.24762013  1
  Zr  Zr2  1  -0.08867551  0.04104353  0.37099171  1
  C  C3  1  0.08023911  0.13762645  0.43610442  1
  Ta  Ta4  1  0.09821652  0.05112317  0.59056433  1
  C  C5  1  0.11016085  0.20116584  0.94620605  1
  Ta  Ta6  1  0.01208997  0.30247734  0.06652771  1
  C  C7  1  0.16077510  0.43561933  0.07856841  1
  Ta  Ta8  1  0.10332648  0.21454206  0.27759736  1
  N  N9  1  0.28037723  0.61476830  0.51474942  1
  Ta  Ta10  1  0.01985450  0.31275542  0.80657119  1
  C  C11  1  0.16384397  0.43856571  0.81296787  1
  Ta  Ta12  1  0.06123122  0.52338648  -0.04969851  1
  N  N13  1  0.05457554  0.93586491  0.26812818  1
  Zr  Zr14  1  0.03199280  0.75885759  0.32006860  1
  C  C15  1  0.16383983  0.88354716  0.51135515  1
  Ta  Ta16  1  0.00243570  0.83681006  0.57896396  1
  N  N17  1  0.22926798  0.70617058  0.79781880  1
  Ta  Ta18  1  0.45593927  0.10178800  -0.10531754  1
  C  C19  1  0.56170088  0.05906220  0.04397543  1
  Ta  Ta20  1  0.18090001  -0.00420918  0.35254263  1
  N  N21  1  0.46734531  0.23064580  0.44883278  1
  Ta  Ta22  1  0.31167741  -0.04365053  0.72142359  1
  C  C23  1  0.58948594  0.12935902  0.77947265  1
  Ta  Ta24  1  0.24448579  0.32554916  -0.04677094  1
  N  N25  1  0.40168240  0.41937086  0.30559414  1
  Ta  Ta26  1  0.33807578  0.25868951  0.33933943  1
  C  C27  1  0.52872711  0.50837354  0.51841282  1
  Ta  Ta28  1  0.20059304  0.12902023  0.80310813  1
  N  N29  1  0.41088108  0.56414635  0.74692421  1
  Ta  Ta30  1  0.29448487  0.56856483  -0.14524698  1
  N  N31  1  0.65287914  0.80181699  0.11829400  1
  Ta  Ta32  1  0.39112770  0.56897373  0.41265848  1
  N  N33  1  0.53039862  0.77810207  0.63100322  1
  Zr  Zr34  1  0.34720427  0.70722215  0.65205883  1
  C  C35  1  0.42944427  0.91303100  0.85552279  1
  Ta  Ta36  1  0.71165468  0.07300857  -0.07817061  1
  C  C37  1  0.85320743  0.16982812  0.04429339  1
  Ta  Ta38  1  0.73759850  -0.10691415  0.50520034  1
  N  N39  1  0.77658378  0.05578354  0.52720792  1
  Zr  Zr40  1  0.58394362  -0.07559787  0.73183193  1
  C  C41  1  0.86469456  0.17427628  0.79312501  1
  Ta  Ta42  1  0.79408107  0.30121182  -0.07681241  1
  N  N43  1  0.91376921  0.68564944  0.22417563  1
  Ta  Ta44  1  0.54483210  0.36993906  0.40569199  1
  N  N45  1  0.67045614  0.73141146  0.43171346  1
  Zr  Zr46  1  0.73148905  0.16357767  0.65118813  1
  C  C47  1  0.91882383  0.42231541  0.94097447  1
  Ta  Ta48  1  0.57456127  0.87929353  -0.00401640  1
  N  N49  1  0.81459729  0.88387019  0.34113653  1
  Zr  Zr50  1  0.74609172  0.73244281  0.25299705  1
  C  C51  1  0.89616494  0.84252391  0.43169780  1
  Ta  Ta52  1  0.62130127  0.65869853  0.56717526  1
  N  N53  1  0.70086504  0.90560281  0.88107559  1
