# generated using pymatgen
data_Zr16Ta11C5N22
_symmetry_space_group_name_H-M   'P 1'
_cell_length_a   11.49324379
_cell_length_b   11.49187215
_cell_length_c   11.51720013
_cell_angle_alpha   90.91804098
_cell_angle_beta   88.32090111
_cell_angle_gamma   89.98181809
_symmetry_Int_Tables_number   1
_chemical_formula_structural   Zr16Ta11C5N22
_chemical_formula_sum   'Zr16 Ta11 C5 N22'
_cell_volume   1520.33016871
_cell_formula_units_Z   1
loop_
 _symmetry_equiv_pos_site_id
 _symmetry_equiv_pos_as_xyz
  1  'x, y, z'
loop_
 _atom_site_type_symbol
 _atom_site_label
 _atom_site_symmetry_multiplicity
 _atom_site_fract_x
 _atom_site_fract_y
 _atom_site_fract_z
 _atom_site_occupancy
  Ta  Ta0  1  -0.13367989  0.14058899  -0.08225436  1
  N  N1  1  0.27620855  0.12738214  0.26530658  1
  Zr  Zr2  1  0.04975963  -0.04523310  0.34789655  1
  C  C3  1  0.09742177  0.14806157  0.43683436  1
  Zr  Zr4  1  0.02225032  0.04612698  0.58577899  1
  N  N5  1  0.01993945  0.20076955  0.90819262  1
  Zr  Zr6  1  0.01022794  0.30926388  0.05718103  1
  N  N7  1  0.27356682  0.35694108  0.21722633  1
  Ta  Ta8  1  0.14950821  0.25560160  0.29285598  1
  N  N9  1  0.14848078  0.39078160  0.41699369  1
  Zr  Zr10  1  -0.00008895  0.32842132  0.77759778  1
  N  N11  1  0.06685141  0.44145031  0.91889636  1
  Ta  Ta12  1  -0.06078634  0.53401347  -0.06266990  1
  N  N13  1  0.02079189  0.80050942  0.27338412  1
  Zr  Zr14  1  -0.06054363  0.66650914  0.33224016  1
  N  N15  1  0.18370458  0.92960851  0.48455278  1
  Ta  Ta16  1  -0.13792412  0.81943720  0.59032377  1
  N  N17  1  0.29456589  0.70136778  0.71623641  1
  Zr  Zr18  1  0.46711520  -0.02542041  0.00519296  1
  N  N19  1  0.46368571  0.16169885  0.05861024  1
  Zr  Zr20  1  0.28888463  0.07111709  0.43843959  1
  N  N21  1  0.32321689  0.26211490  0.49677392  1
  Zr  Zr22  1  0.32482868  -0.13407061  0.64588256  1
  N  N23  1  0.61775462  0.03846579  0.92742983  1
  Ta  Ta24  1  0.39151122  0.23218444  0.19530199  1
  N  N25  1  0.49739424  0.32795894  0.29457998  1
  Zr  Zr26  1  0.34092901  0.41912598  0.39126479  1
  N  N27  1  0.51876252  0.52892169  0.45935737  1
  Ta  Ta28  1  0.16136118  0.28519935  0.54177544  1
  N  N29  1  0.51539825  0.61744745  0.79935146  1
  Ta  Ta30  1  0.37914026  0.71753132  -0.14864615  1
  N  N31  1  0.57880924  0.95830231  0.14508667  1
  Ta  Ta32  1  0.49734204  0.69756334  0.38553391  1
  N  N33  1  0.42796169  0.77507829  0.52033699  1
  Zr  Zr34  1  0.44852838  0.60315362  0.62427311  1
  C  C35  1  0.45855487  0.88389507  0.80924917  1
  Zr  Zr36  1  0.64284524  0.11255599  0.09692083  1
  N  N37  1  0.82630740  0.21022341  0.06793708  1
  Zr  Zr38  1  0.74498939  -0.11632292  0.34180867  1
  N  N39  1  0.96212236  0.20650742  0.64127407  1
  Zr  Zr40  1  0.66195374  0.02871315  0.76157220  1
  C  C41  1  0.73490866  0.20731271  0.81028150  1
  Zr  Zr42  1  0.74494780  0.36839935  0.01283265  1
  N  N43  1  0.88933012  0.45960125  0.07257017  1
  Ta  Ta44  1  0.59015066  0.46261186  0.31516140  1
  N  N45  1  0.89677333  0.67481582  0.51777818  1
  Zr  Zr46  1  0.79373724  0.26325959  0.63608117  1
  C  C47  1  0.79853751  0.31751625  0.82965999  1
  Ta  Ta48  1  0.60905570  0.76137762  -0.20350651  1
  N  N49  1  0.76209144  0.71096380  0.31904922  1
  Zr  Zr50  1  0.71725877  0.61720691  0.48398847  1
  C  C51  1  0.88646084  0.94998175  0.46718735  1
  Ta  Ta52  1  0.59259567  0.84612105  0.56454059  1
  N  N53  1  0.72450117  0.84728614  0.69849587  1
